
Spectre (R) Circuit Simulator
Version 20.1.0.126.isr3 64bit -- 16 Jan 2021
Copyright (C) 1989-2020 Cadence Design Systems, Inc. All rights reserved worldwide. Cadence and Spectre are registered trademarks of Cadence Design Systems, Inc. All others are the property of their respective holders.

Includes RSA BSAFE(R) Cryptographic or Security Protocol Software from RSA Security, Inc.

User: u0666767   Host: lab2-5.eng.utah.edu   HostID: 629B6B6F   PID: 1751715
Memory  available: 50.6250 GB  physical: 67.4530 GB
Linux   : Red Hat Enterprise Linux release 8.4 (Ootpa)
CPU Type: Intel(R) Core(TM) i7-10700 CPU @ 2.90GHz
        Socket: Processors [Frequency] (Hyperthreaded Processor)
        0:       0 [4600.1] (  8 ),  1 [4597.5] (  9 ),  2 [4600.1] ( 10 )
                 3 [4600.0] ( 11 ),  4 [4507.4] ( 12 ),  5 [4302.6] ( 13 )
                 6 [3988.0] ( 14 ),  7 [2924.2] ( 15 )
        
System load averages (1min, 5min, 15min) : 1.5 %, 0.9 %, 0.4 %
Hyperthreading is enabled


Simulating `input.scs' on lab2-5.eng.utah.edu at 5:26:35 PM, Sun Nov 28, 2021 (process id: 1751715).
Current working directory: /home/u0666767/ECE6720_F21/simulation/Project/spectre/schematic/netlist
Environment variable:
    SPECTRE_DEFAULTS=-E
Command line:
    /uusoc/facility/cad_tools/Cadence/SPECTRE201/tools/bin/spectre -64  \
        input.scs +escchars +log ../psf/spectre.out +inter=mpsc  \
        +mpssession=spectre0_1750731_1 -format psfxl -raw ../psf  \
        +lqtimeout 900 -maxw 5 -maxn 5 -env ade
spectre pid = 1751715

Loading /uusoc/facility/cad_tools/Cadence/SPECTRE201/tools.lnx86/cmi/lib/64bit/5.0/libinfineon_sh.so ...
Loading /uusoc/facility/cad_tools/Cadence/SPECTRE201/tools.lnx86/cmi/lib/64bit/5.0/libphilips_o_sh.so ...
Loading /uusoc/facility/cad_tools/Cadence/SPECTRE201/tools.lnx86/cmi/lib/64bit/5.0/libphilips_sh.so ...
Loading /uusoc/facility/cad_tools/Cadence/SPECTRE201/tools.lnx86/cmi/lib/64bit/5.0/libsparam_sh.so ...
Loading /uusoc/facility/cad_tools/Cadence/SPECTRE201/tools.lnx86/cmi/lib/64bit/5.0/libstmodels_sh.so ...
Reading file:  /home/u0666767/ECE6720_F21/simulation/Project/spectre/schematic/netlist/input.scs
Reading file:  /uusoc/facility/cad_tools/Cadence/SPECTRE201/tools.lnx86/spectre/etc/configs/spectre.cfg
Reading file:  /usr/include/stdc-predef.h
Reading file:  /home/AMSICtools/models/Generic180nm.mod
Time for NDB Parsing: CPU = 38.11 ms, elapsed = 111.845 ms.
Time accumulated: CPU = 79.797 ms, elapsed = 111.847 ms.
Peak resident memory used = 109 Mbytes.

Time for Elaboration: CPU = 10.985 ms, elapsed = 12.346 ms.
Time accumulated: CPU = 90.844 ms, elapsed = 124.255 ms.
Peak resident memory used = 117 Mbytes.


Warning from spectre during hierarchy flattening.
    WARNING (SPECTRE-17101): The value 'psf' specified for the 'checklimitdest' option will no longer be supported in future releases. Use 'spectre -h' to see other recommended values for the 'checklimitdest' option.


Time for EDB Visiting: CPU = 414 us, elapsed = 414.848 us.
Time accumulated: CPU = 91.313 ms, elapsed = 124.725 ms.
Peak resident memory used = 118 Mbytes.


Global user options:
         psfversion = 1.4.0
            vabstol = 1e-06
            iabstol = 1e-12
               temp = 27
               gmin = 1e-12
             rforce = 1
           maxnotes = 5
           maxwarns = 5
             digits = 5
               cols = 80
             pivrel = 0.001
           sensfile = ../psf/sens.output
     checklimitdest = psf
               save = allpub
             reltol = 0.001
               tnom = 27
             scalem = 1
              scale = 1

Scoped user options:

Circuit inventory:
              nodes 9
            bsim3v3 3     
          capacitor 5     
               cccs 1     
             iprobe 1     
            isource 3     
           resistor 5     
               vccs 1     
            vsource 3     

Analysis and control statement inventory:
                 ac 1     
                 dc 1     
               info 7     
              noise 1     
                stb 1     

Output statements:
             .probe 0     
           .measure 0     
               save 0     

Time for parsing: CPU = 1.253 ms, elapsed = 16.4011 ms.
Time accumulated: CPU = 92.612 ms, elapsed = 141.172 ms.
Peak resident memory used = 121 Mbytes.

~~~~~~~~~~~~~~~~~~~~~~
Pre-Simulation Summary
~~~~~~~~~~~~~~~~~~~~~~
~~~~~~~~~~~~~~~~~~~~~~
Entering remote command mode using MPSC service (spectre, ipi, v0.0, spectre0_1750731_1, ).

******************
DC Analysis `dcOp'
******************

Opening the PSF file ../psf/dcOp.dc ...
Important parameter values:
    reltol = 1e-03
    abstol(V) = 1 uV
    abstol(I) = 1 pA
    temp = 27 C
    tnom = 27 C
    tempeffects = all
    gmindc = 1 pS

Maximum value achieved for any signal of each quantity: 
V: V(vdd!) = 1.8 V
I: I(VDD:p) = 772.2 uA
Convergence achieved in 7 iterations.
DC simulation time: CPU = 1.245 ms, elapsed = 11.4062 ms.
Total time required for dc analysis `dcOp': CPU = 1.272 ms, elapsed = 11.4319 ms.
Time accumulated: CPU = 96.487 ms, elapsed = 173.995 ms.
Peak resident memory used = 122 Mbytes.

dcOpInfo: writing operating point information to rawfile.

Opening the PSF file ../psf/dcOpInfo.info ...

******************************************
AC Analysis `ac': freq = (1 Hz -> 100 GHz)
******************************************

Notice from spectre during AC analysis `ac'.
    Operating points will not be recomputed: the circuit and conditions were not changed since previous analysis.


Opening the PSF file ../psf/ac.ac ...
    ac: freq = 1.884 Hz     (2.5 %), step = 21.56 mHz   (45.5 m%)
    ac: freq = 1.905 Hz    (2.55 %), step = 21.81 mHz   (45.5 m%)
    ac: freq = 1.928 Hz    (2.59 %), step = 22.06 mHz   (45.5 m%)
    ac: freq = 1.95 Hz     (2.64 %), step = 22.32 mHz   (45.5 m%)
    ac: freq = 1.972 Hz    (2.68 %), step = 22.58 mHz   (45.5 m%)
    ac: freq = 1.995 Hz    (2.73 %), step = 22.84 mHz   (45.5 m%)
    ac: freq = 2.018 Hz    (2.77 %), step = 23.1 mHz    (45.5 m%)
    ac: freq = 2.042 Hz    (2.82 %), step = 23.37 mHz   (45.5 m%)
    ac: freq = 2.065 Hz    (2.86 %), step = 23.64 mHz   (45.5 m%)
    ac: freq = 2.089 Hz    (2.91 %), step = 23.92 mHz   (45.5 m%)
    ac: freq = 2.113 Hz    (2.95 %), step = 24.19 mHz   (45.5 m%)
    ac: freq = 2.138 Hz       (3 %), step = 24.47 mHz   (45.5 m%)
    ac: freq = 2.163 Hz    (3.05 %), step = 24.76 mHz   (45.5 m%)
    ac: freq = 2.188 Hz    (3.09 %), step = 25.04 mHz   (45.5 m%)
    ac: freq = 2.213 Hz    (3.14 %), step = 25.33 mHz   (45.5 m%)
    ac: freq = 2.239 Hz    (3.18 %), step = 25.63 mHz   (45.5 m%)
    ac: freq = 2.265 Hz    (3.23 %), step = 25.92 mHz   (45.5 m%)
    ac: freq = 2.291 Hz    (3.27 %), step = 26.22 mHz   (45.5 m%)
    ac: freq = 2.317 Hz    (3.32 %), step = 26.53 mHz   (45.5 m%)
    ac: freq = 2.344 Hz    (3.36 %), step = 26.83 mHz   (45.5 m%)
    ac: freq = 2.371 Hz    (3.41 %), step = 27.14 mHz   (45.5 m%)
    ac: freq = 2.399 Hz    (3.45 %), step = 27.46 mHz   (45.5 m%)
    ac: freq = 2.427 Hz     (3.5 %), step = 27.78 mHz   (45.5 m%)
    ac: freq = 2.455 Hz    (3.55 %), step = 28.1 mHz    (45.5 m%)
    ac: freq = 2.483 Hz    (3.59 %), step = 28.42 mHz   (45.5 m%)
    ac: freq = 2.512 Hz    (3.64 %), step = 28.75 mHz   (45.5 m%)
    ac: freq = 2.541 Hz    (3.68 %), step = 29.09 mHz   (45.5 m%)
    ac: freq = 2.57 Hz     (3.73 %), step = 29.42 mHz   (45.5 m%)
    ac: freq = 2.6 Hz      (3.77 %), step = 29.76 mHz   (45.5 m%)
    ac: freq = 2.63 Hz     (3.82 %), step = 30.11 mHz   (45.5 m%)
    ac: freq = 2.661 Hz    (3.86 %), step = 30.46 mHz   (45.5 m%)
    ac: freq = 2.692 Hz    (3.91 %), step = 30.81 mHz   (45.5 m%)
    ac: freq = 2.723 Hz    (3.95 %), step = 31.17 mHz   (45.5 m%)
    ac: freq = 2.754 Hz       (4 %), step = 31.53 mHz   (45.5 m%)
    ac: freq = 2.786 Hz    (4.05 %), step = 31.89 mHz   (45.5 m%)
    ac: freq = 2.818 Hz    (4.09 %), step = 32.26 mHz   (45.5 m%)
    ac: freq = 2.851 Hz    (4.14 %), step = 32.64 mHz   (45.5 m%)
    ac: freq = 2.884 Hz    (4.18 %), step = 33.01 mHz   (45.5 m%)
    ac: freq = 2.917 Hz    (4.23 %), step = 33.4 mHz    (45.5 m%)
    ac: freq = 2.951 Hz    (4.27 %), step = 33.78 mHz   (45.5 m%)
    ac: freq = 2.985 Hz    (4.32 %), step = 34.17 mHz   (45.5 m%)
    ac: freq = 3.02 Hz     (4.36 %), step = 34.57 mHz   (45.5 m%)
    ac: freq = 3.055 Hz    (4.41 %), step = 34.97 mHz   (45.5 m%)
    ac: freq = 3.09 Hz     (4.45 %), step = 35.37 mHz   (45.5 m%)
    ac: freq = 3.126 Hz     (4.5 %), step = 35.78 mHz   (45.5 m%)
    ac: freq = 3.162 Hz    (4.55 %), step = 36.2 mHz    (45.5 m%)
    ac: freq = 3.199 Hz    (4.59 %), step = 36.62 mHz   (45.5 m%)
    ac: freq = 3.236 Hz    (4.64 %), step = 37.04 mHz   (45.5 m%)
    ac: freq = 3.273 Hz    (4.68 %), step = 37.47 mHz   (45.5 m%)
    ac: freq = 3.311 Hz    (4.73 %), step = 37.9 mHz    (45.5 m%)
    ac: freq = 3.35 Hz     (4.77 %), step = 38.34 mHz   (45.5 m%)
    ac: freq = 3.388 Hz    (4.82 %), step = 38.79 mHz   (45.5 m%)
    ac: freq = 3.428 Hz    (4.86 %), step = 39.24 mHz   (45.5 m%)
    ac: freq = 3.467 Hz    (4.91 %), step = 39.69 mHz   (45.5 m%)
    ac: freq = 3.508 Hz    (4.95 %), step = 40.15 mHz   (45.5 m%)
    ac: freq = 3.548 Hz       (5 %), step = 40.62 mHz   (45.5 m%)
    ac: freq = 3.589 Hz    (5.05 %), step = 41.09 mHz   (45.5 m%)
    ac: freq = 3.631 Hz    (5.09 %), step = 41.56 mHz   (45.5 m%)
    ac: freq = 3.673 Hz    (5.14 %), step = 42.04 mHz   (45.5 m%)
    ac: freq = 3.715 Hz    (5.18 %), step = 42.53 mHz   (45.5 m%)
    ac: freq = 3.758 Hz    (5.23 %), step = 43.02 mHz   (45.5 m%)
    ac: freq = 3.802 Hz    (5.27 %), step = 43.52 mHz   (45.5 m%)
    ac: freq = 3.846 Hz    (5.32 %), step = 44.02 mHz   (45.5 m%)
    ac: freq = 3.89 Hz     (5.36 %), step = 44.53 mHz   (45.5 m%)
    ac: freq = 3.936 Hz    (5.41 %), step = 45.05 mHz   (45.5 m%)
    ac: freq = 3.981 Hz    (5.45 %), step = 45.57 mHz   (45.5 m%)
    ac: freq = 4.027 Hz     (5.5 %), step = 46.1 mHz    (45.5 m%)
    ac: freq = 4.074 Hz    (5.55 %), step = 46.63 mHz   (45.5 m%)
    ac: freq = 4.121 Hz    (5.59 %), step = 47.17 mHz   (45.5 m%)
    ac: freq = 4.169 Hz    (5.64 %), step = 47.72 mHz   (45.5 m%)
    ac: freq = 4.217 Hz    (5.68 %), step = 48.27 mHz   (45.5 m%)
    ac: freq = 4.266 Hz    (5.73 %), step = 48.83 mHz   (45.5 m%)
    ac: freq = 4.315 Hz    (5.77 %), step = 49.4 mHz    (45.5 m%)
    ac: freq = 4.365 Hz    (5.82 %), step = 49.97 mHz   (45.5 m%)
    ac: freq = 4.416 Hz    (5.86 %), step = 50.55 mHz   (45.5 m%)
    ac: freq = 4.467 Hz    (5.91 %), step = 51.13 mHz   (45.5 m%)
    ac: freq = 4.519 Hz    (5.95 %), step = 51.72 mHz   (45.5 m%)
    ac: freq = 4.571 Hz       (6 %), step = 52.32 mHz   (45.5 m%)
    ac: freq = 4.624 Hz    (6.05 %), step = 52.93 mHz   (45.5 m%)
    ac: freq = 4.677 Hz    (6.09 %), step = 53.54 mHz   (45.5 m%)
    ac: freq = 4.732 Hz    (6.14 %), step = 54.16 mHz   (45.5 m%)
    ac: freq = 4.786 Hz    (6.18 %), step = 54.79 mHz   (45.5 m%)
    ac: freq = 4.842 Hz    (6.23 %), step = 55.42 mHz   (45.5 m%)
    ac: freq = 4.898 Hz    (6.27 %), step = 56.06 mHz   (45.5 m%)
    ac: freq = 4.955 Hz    (6.32 %), step = 56.71 mHz   (45.5 m%)
    ac: freq = 5.012 Hz    (6.36 %), step = 57.37 mHz   (45.5 m%)
    ac: freq = 5.07 Hz     (6.41 %), step = 58.03 mHz   (45.5 m%)
    ac: freq = 5.129 Hz    (6.45 %), step = 58.71 mHz   (45.5 m%)
    ac: freq = 5.188 Hz     (6.5 %), step = 59.39 mHz   (45.5 m%)
    ac: freq = 5.248 Hz    (6.55 %), step = 60.07 mHz   (45.5 m%)
    ac: freq = 5.309 Hz    (6.59 %), step = 60.77 mHz   (45.5 m%)
    ac: freq = 5.37 Hz     (6.64 %), step = 61.47 mHz   (45.5 m%)
    ac: freq = 5.433 Hz    (6.68 %), step = 62.19 mHz   (45.5 m%)
    ac: freq = 5.495 Hz    (6.73 %), step = 62.91 mHz   (45.5 m%)
    ac: freq = 5.559 Hz    (6.77 %), step = 63.63 mHz   (45.5 m%)
    ac: freq = 5.623 Hz    (6.82 %), step = 64.37 mHz   (45.5 m%)
    ac: freq = 5.689 Hz    (6.86 %), step = 65.12 mHz   (45.5 m%)
    ac: freq = 5.754 Hz    (6.91 %), step = 65.87 mHz   (45.5 m%)
    ac: freq = 5.821 Hz    (6.95 %), step = 66.63 mHz   (45.5 m%)
    ac: freq = 5.888 Hz       (7 %), step = 67.4 mHz    (45.5 m%)
    ac: freq = 5.957 Hz    (7.05 %), step = 68.18 mHz   (45.5 m%)
    ac: freq = 6.026 Hz    (7.09 %), step = 68.97 mHz   (45.5 m%)
    ac: freq = 6.095 Hz    (7.14 %), step = 69.77 mHz   (45.5 m%)
    ac: freq = 6.166 Hz    (7.18 %), step = 70.58 mHz   (45.5 m%)
    ac: freq = 6.237 Hz    (7.23 %), step = 71.4 mHz    (45.5 m%)
    ac: freq = 6.31 Hz     (7.27 %), step = 72.23 mHz   (45.5 m%)
    ac: freq = 6.383 Hz    (7.32 %), step = 73.06 mHz   (45.5 m%)
    ac: freq = 6.457 Hz    (7.36 %), step = 73.91 mHz   (45.5 m%)
    ac: freq = 6.531 Hz    (7.41 %), step = 74.76 mHz   (45.5 m%)
    ac: freq = 6.607 Hz    (7.45 %), step = 75.63 mHz   (45.5 m%)
    ac: freq = 6.683 Hz     (7.5 %), step = 76.5 mHz    (45.5 m%)
    ac: freq = 6.761 Hz    (7.55 %), step = 77.39 mHz   (45.5 m%)
    ac: freq = 6.839 Hz    (7.59 %), step = 78.29 mHz   (45.5 m%)
    ac: freq = 6.918 Hz    (7.64 %), step = 79.19 mHz   (45.5 m%)
    ac: freq = 6.998 Hz    (7.68 %), step = 80.11 mHz   (45.5 m%)
    ac: freq = 7.079 Hz    (7.73 %), step = 81.04 mHz   (45.5 m%)
    ac: freq = 7.161 Hz    (7.77 %), step = 81.98 mHz   (45.5 m%)
    ac: freq = 7.244 Hz    (7.82 %), step = 82.93 mHz   (45.5 m%)
    ac: freq = 7.328 Hz    (7.86 %), step = 83.89 mHz   (45.5 m%)
    ac: freq = 7.413 Hz    (7.91 %), step = 84.86 mHz   (45.5 m%)
    ac: freq = 7.499 Hz    (7.95 %), step = 85.84 mHz   (45.5 m%)
    ac: freq = 7.586 Hz       (8 %), step = 86.83 mHz   (45.5 m%)
    ac: freq = 7.674 Hz    (8.05 %), step = 87.84 mHz   (45.5 m%)
    ac: freq = 7.762 Hz    (8.09 %), step = 88.86 mHz   (45.5 m%)
    ac: freq = 7.852 Hz    (8.14 %), step = 89.89 mHz   (45.5 m%)
    ac: freq = 7.943 Hz    (8.18 %), step = 90.93 mHz   (45.5 m%)
    ac: freq = 8.035 Hz    (8.23 %), step = 91.98 mHz   (45.5 m%)
    ac: freq = 8.128 Hz    (8.27 %), step = 93.04 mHz   (45.5 m%)
    ac: freq = 8.222 Hz    (8.32 %), step = 94.12 mHz   (45.5 m%)
    ac: freq = 8.318 Hz    (8.36 %), step = 95.21 mHz   (45.5 m%)
    ac: freq = 8.414 Hz    (8.41 %), step = 96.31 mHz   (45.5 m%)
    ac: freq = 8.511 Hz    (8.45 %), step = 97.43 mHz   (45.5 m%)
    ac: freq = 8.61 Hz      (8.5 %), step = 98.56 mHz   (45.5 m%)
    ac: freq = 8.71 Hz     (8.55 %), step = 99.7 mHz    (45.5 m%)
    ac: freq = 8.81 Hz     (8.59 %), step = 100.9 mHz   (45.5 m%)
    ac: freq = 8.913 Hz    (8.64 %), step = 102 mHz     (45.5 m%)
    ac: freq = 9.016 Hz    (8.68 %), step = 103.2 mHz   (45.5 m%)
    ac: freq = 9.12 Hz     (8.73 %), step = 104.4 mHz   (45.5 m%)
    ac: freq = 9.226 Hz    (8.77 %), step = 105.6 mHz   (45.5 m%)
    ac: freq = 9.333 Hz    (8.82 %), step = 106.8 mHz   (45.5 m%)
    ac: freq = 9.441 Hz    (8.86 %), step = 108.1 mHz   (45.5 m%)
    ac: freq = 9.55 Hz     (8.91 %), step = 109.3 mHz   (45.5 m%)
    ac: freq = 9.661 Hz    (8.95 %), step = 110.6 mHz   (45.5 m%)
    ac: freq = 9.772 Hz       (9 %), step = 111.9 mHz   (45.5 m%)
    ac: freq = 9.886 Hz    (9.05 %), step = 113.2 mHz   (45.5 m%)
    ac: freq = 10 Hz       (9.09 %), step = 114.5 mHz   (45.5 m%)
    ac: freq = 10.12 Hz    (9.14 %), step = 115.8 mHz   (45.5 m%)
    ac: freq = 10.23 Hz    (9.18 %), step = 117.1 mHz   (45.5 m%)
    ac: freq = 10.35 Hz    (9.23 %), step = 118.5 mHz   (45.5 m%)
    ac: freq = 10.47 Hz    (9.27 %), step = 119.9 mHz   (45.5 m%)
    ac: freq = 10.59 Hz    (9.32 %), step = 121.3 mHz   (45.5 m%)
    ac: freq = 10.72 Hz    (9.36 %), step = 122.7 mHz   (45.5 m%)
    ac: freq = 10.84 Hz    (9.41 %), step = 124.1 mHz   (45.5 m%)
    ac: freq = 10.96 Hz    (9.45 %), step = 125.5 mHz   (45.5 m%)
    ac: freq = 11.09 Hz     (9.5 %), step = 127 mHz     (45.5 m%)
    ac: freq = 11.22 Hz    (9.55 %), step = 128.4 mHz   (45.5 m%)
    ac: freq = 11.35 Hz    (9.59 %), step = 129.9 mHz   (45.5 m%)
    ac: freq = 11.48 Hz    (9.64 %), step = 131.4 mHz   (45.5 m%)
    ac: freq = 11.61 Hz    (9.68 %), step = 132.9 mHz   (45.5 m%)
    ac: freq = 11.75 Hz    (9.73 %), step = 134.5 mHz   (45.5 m%)
    ac: freq = 11.89 Hz    (9.77 %), step = 136 mHz     (45.5 m%)
    ac: freq = 12.02 Hz    (9.82 %), step = 137.6 mHz   (45.5 m%)
    ac: freq = 12.16 Hz    (9.86 %), step = 139.2 mHz   (45.5 m%)
    ac: freq = 12.3 Hz     (9.91 %), step = 140.8 mHz   (45.5 m%)
    ac: freq = 12.45 Hz    (9.95 %), step = 142.5 mHz   (45.5 m%)
    ac: freq = 12.59 Hz      (10 %), step = 144.1 mHz   (45.5 m%)
    ac: freq = 12.74 Hz      (10 %), step = 145.8 mHz   (45.5 m%)
    ac: freq = 12.88 Hz    (10.1 %), step = 147.5 mHz   (45.5 m%)
    ac: freq = 13.03 Hz    (10.1 %), step = 149.2 mHz   (45.5 m%)
    ac: freq = 13.18 Hz    (10.2 %), step = 150.9 mHz   (45.5 m%)
    ac: freq = 13.34 Hz    (10.2 %), step = 152.6 mHz   (45.5 m%)
    ac: freq = 13.49 Hz    (10.3 %), step = 154.4 mHz   (45.5 m%)
    ac: freq = 13.65 Hz    (10.3 %), step = 156.2 mHz   (45.5 m%)
    ac: freq = 13.8 Hz     (10.4 %), step = 158 mHz     (45.5 m%)
    ac: freq = 13.96 Hz    (10.4 %), step = 159.8 mHz   (45.5 m%)
    ac: freq = 14.13 Hz    (10.5 %), step = 161.7 mHz   (45.5 m%)
    ac: freq = 14.29 Hz    (10.5 %), step = 163.6 mHz   (45.5 m%)
    ac: freq = 14.45 Hz    (10.5 %), step = 165.5 mHz   (45.5 m%)
    ac: freq = 14.62 Hz    (10.6 %), step = 167.4 mHz   (45.5 m%)
    ac: freq = 14.79 Hz    (10.6 %), step = 169.3 mHz   (45.5 m%)
    ac: freq = 14.96 Hz    (10.7 %), step = 171.3 mHz   (45.5 m%)
    ac: freq = 15.14 Hz    (10.7 %), step = 173.3 mHz   (45.5 m%)
    ac: freq = 15.31 Hz    (10.8 %), step = 175.3 mHz   (45.5 m%)
    ac: freq = 15.49 Hz    (10.8 %), step = 177.3 mHz   (45.5 m%)
    ac: freq = 15.67 Hz    (10.9 %), step = 179.3 mHz   (45.5 m%)
    ac: freq = 15.85 Hz    (10.9 %), step = 181.4 mHz   (45.5 m%)
    ac: freq = 16.03 Hz      (11 %), step = 183.5 mHz   (45.5 m%)
    ac: freq = 16.22 Hz      (11 %), step = 185.6 mHz   (45.5 m%)
    ac: freq = 16.41 Hz      (11 %), step = 187.8 mHz   (45.5 m%)
    ac: freq = 16.6 Hz     (11.1 %), step = 190 mHz     (45.5 m%)
    ac: freq = 16.79 Hz    (11.1 %), step = 192.2 mHz   (45.5 m%)
    ac: freq = 16.98 Hz    (11.2 %), step = 194.4 mHz   (45.5 m%)
    ac: freq = 17.18 Hz    (11.2 %), step = 196.6 mHz   (45.5 m%)
    ac: freq = 17.38 Hz    (11.3 %), step = 198.9 mHz   (45.5 m%)
    ac: freq = 17.58 Hz    (11.3 %), step = 201.2 mHz   (45.5 m%)
    ac: freq = 17.78 Hz    (11.4 %), step = 203.6 mHz   (45.5 m%)
    ac: freq = 17.99 Hz    (11.4 %), step = 205.9 mHz   (45.5 m%)
    ac: freq = 18.2 Hz     (11.5 %), step = 208.3 mHz   (45.5 m%)
    ac: freq = 18.41 Hz    (11.5 %), step = 210.7 mHz   (45.5 m%)
    ac: freq = 18.62 Hz    (11.5 %), step = 213.2 mHz   (45.5 m%)
    ac: freq = 18.84 Hz    (11.6 %), step = 215.6 mHz   (45.5 m%)
    ac: freq = 19.05 Hz    (11.6 %), step = 218.1 mHz   (45.5 m%)
    ac: freq = 19.28 Hz    (11.7 %), step = 220.6 mHz   (45.5 m%)
    ac: freq = 19.5 Hz     (11.7 %), step = 223.2 mHz   (45.5 m%)
    ac: freq = 19.72 Hz    (11.8 %), step = 225.8 mHz   (45.5 m%)
    ac: freq = 19.95 Hz    (11.8 %), step = 228.4 mHz   (45.5 m%)
    ac: freq = 20.18 Hz    (11.9 %), step = 231 mHz     (45.5 m%)
    ac: freq = 20.42 Hz    (11.9 %), step = 233.7 mHz   (45.5 m%)
    ac: freq = 20.65 Hz      (12 %), step = 236.4 mHz   (45.5 m%)
    ac: freq = 20.89 Hz      (12 %), step = 239.2 mHz   (45.5 m%)
    ac: freq = 21.13 Hz      (12 %), step = 241.9 mHz   (45.5 m%)
    ac: freq = 21.38 Hz    (12.1 %), step = 244.7 mHz   (45.5 m%)
    ac: freq = 21.63 Hz    (12.1 %), step = 247.6 mHz   (45.5 m%)
    ac: freq = 21.88 Hz    (12.2 %), step = 250.4 mHz   (45.5 m%)
    ac: freq = 22.13 Hz    (12.2 %), step = 253.3 mHz   (45.5 m%)
    ac: freq = 22.39 Hz    (12.3 %), step = 256.3 mHz   (45.5 m%)
    ac: freq = 22.65 Hz    (12.3 %), step = 259.2 mHz   (45.5 m%)
    ac: freq = 22.91 Hz    (12.4 %), step = 262.2 mHz   (45.5 m%)
    ac: freq = 23.17 Hz    (12.4 %), step = 265.3 mHz   (45.5 m%)
    ac: freq = 23.44 Hz    (12.5 %), step = 268.3 mHz   (45.5 m%)
    ac: freq = 23.71 Hz    (12.5 %), step = 271.4 mHz   (45.5 m%)
    ac: freq = 23.99 Hz    (12.5 %), step = 274.6 mHz   (45.5 m%)
    ac: freq = 24.27 Hz    (12.6 %), step = 277.8 mHz   (45.5 m%)
    ac: freq = 24.55 Hz    (12.6 %), step = 281 mHz     (45.5 m%)
    ac: freq = 24.83 Hz    (12.7 %), step = 284.2 mHz   (45.5 m%)
    ac: freq = 25.12 Hz    (12.7 %), step = 287.5 mHz   (45.5 m%)
    ac: freq = 25.41 Hz    (12.8 %), step = 290.9 mHz   (45.5 m%)
    ac: freq = 25.7 Hz     (12.8 %), step = 294.2 mHz   (45.5 m%)
    ac: freq = 26 Hz       (12.9 %), step = 297.6 mHz   (45.5 m%)
    ac: freq = 26.3 Hz     (12.9 %), step = 301.1 mHz   (45.5 m%)
    ac: freq = 26.61 Hz      (13 %), step = 304.6 mHz   (45.5 m%)
    ac: freq = 26.92 Hz      (13 %), step = 308.1 mHz   (45.5 m%)
    ac: freq = 27.23 Hz      (13 %), step = 311.7 mHz   (45.5 m%)
    ac: freq = 27.54 Hz    (13.1 %), step = 315.3 mHz   (45.5 m%)
    ac: freq = 27.86 Hz    (13.1 %), step = 318.9 mHz   (45.5 m%)
    ac: freq = 28.18 Hz    (13.2 %), step = 322.6 mHz   (45.5 m%)
    ac: freq = 28.51 Hz    (13.2 %), step = 326.4 mHz   (45.5 m%)
    ac: freq = 28.84 Hz    (13.3 %), step = 330.1 mHz   (45.5 m%)
    ac: freq = 29.17 Hz    (13.3 %), step = 334 mHz     (45.5 m%)
    ac: freq = 29.51 Hz    (13.4 %), step = 337.8 mHz   (45.5 m%)
    ac: freq = 29.85 Hz    (13.4 %), step = 341.7 mHz   (45.5 m%)
    ac: freq = 30.2 Hz     (13.5 %), step = 345.7 mHz   (45.5 m%)
    ac: freq = 30.55 Hz    (13.5 %), step = 349.7 mHz   (45.5 m%)
    ac: freq = 30.9 Hz     (13.5 %), step = 353.7 mHz   (45.5 m%)
    ac: freq = 31.26 Hz    (13.6 %), step = 357.8 mHz   (45.5 m%)
    ac: freq = 31.62 Hz    (13.6 %), step = 362 mHz     (45.5 m%)
    ac: freq = 31.99 Hz    (13.7 %), step = 366.2 mHz   (45.5 m%)
    ac: freq = 32.36 Hz    (13.7 %), step = 370.4 mHz   (45.5 m%)
    ac: freq = 32.73 Hz    (13.8 %), step = 374.7 mHz   (45.5 m%)
    ac: freq = 33.11 Hz    (13.8 %), step = 379 mHz     (45.5 m%)
    ac: freq = 33.5 Hz     (13.9 %), step = 383.4 mHz   (45.5 m%)
    ac: freq = 33.88 Hz    (13.9 %), step = 387.9 mHz   (45.5 m%)
    ac: freq = 34.28 Hz      (14 %), step = 392.4 mHz   (45.5 m%)
    ac: freq = 34.67 Hz      (14 %), step = 396.9 mHz   (45.5 m%)
    ac: freq = 35.08 Hz      (14 %), step = 401.5 mHz   (45.5 m%)
    ac: freq = 35.48 Hz    (14.1 %), step = 406.2 mHz   (45.5 m%)
    ac: freq = 35.89 Hz    (14.1 %), step = 410.9 mHz   (45.5 m%)
    ac: freq = 36.31 Hz    (14.2 %), step = 415.6 mHz   (45.5 m%)
    ac: freq = 36.73 Hz    (14.2 %), step = 420.4 mHz   (45.5 m%)
    ac: freq = 37.15 Hz    (14.3 %), step = 425.3 mHz   (45.5 m%)
    ac: freq = 37.58 Hz    (14.3 %), step = 430.2 mHz   (45.5 m%)
    ac: freq = 38.02 Hz    (14.4 %), step = 435.2 mHz   (45.5 m%)
    ac: freq = 38.46 Hz    (14.4 %), step = 440.2 mHz   (45.5 m%)
    ac: freq = 38.9 Hz     (14.5 %), step = 445.3 mHz   (45.5 m%)
    ac: freq = 39.36 Hz    (14.5 %), step = 450.5 mHz   (45.5 m%)
    ac: freq = 39.81 Hz    (14.5 %), step = 455.7 mHz   (45.5 m%)
    ac: freq = 40.27 Hz    (14.6 %), step = 461 mHz     (45.5 m%)
    ac: freq = 40.74 Hz    (14.6 %), step = 466.3 mHz   (45.5 m%)
    ac: freq = 41.21 Hz    (14.7 %), step = 471.7 mHz   (45.5 m%)
    ac: freq = 41.69 Hz    (14.7 %), step = 477.2 mHz   (45.5 m%)
    ac: freq = 42.17 Hz    (14.8 %), step = 482.7 mHz   (45.5 m%)
    ac: freq = 42.66 Hz    (14.8 %), step = 488.3 mHz   (45.5 m%)
    ac: freq = 43.15 Hz    (14.9 %), step = 494 mHz     (45.5 m%)
    ac: freq = 43.65 Hz    (14.9 %), step = 499.7 mHz   (45.5 m%)
    ac: freq = 44.16 Hz      (15 %), step = 505.5 mHz   (45.5 m%)
    ac: freq = 44.67 Hz      (15 %), step = 511.3 mHz   (45.5 m%)
    ac: freq = 45.19 Hz      (15 %), step = 517.2 mHz   (45.5 m%)
    ac: freq = 45.71 Hz    (15.1 %), step = 523.2 mHz   (45.5 m%)
    ac: freq = 46.24 Hz    (15.1 %), step = 529.3 mHz   (45.5 m%)
    ac: freq = 46.77 Hz    (15.2 %), step = 535.4 mHz   (45.5 m%)
    ac: freq = 47.32 Hz    (15.2 %), step = 541.6 mHz   (45.5 m%)
    ac: freq = 47.86 Hz    (15.3 %), step = 547.9 mHz   (45.5 m%)
    ac: freq = 48.42 Hz    (15.3 %), step = 554.2 mHz   (45.5 m%)
    ac: freq = 48.98 Hz    (15.4 %), step = 560.6 mHz   (45.5 m%)
    ac: freq = 49.55 Hz    (15.4 %), step = 567.1 mHz   (45.5 m%)
    ac: freq = 50.12 Hz    (15.5 %), step = 573.7 mHz   (45.5 m%)
    ac: freq = 50.7 Hz     (15.5 %), step = 580.3 mHz   (45.5 m%)
    ac: freq = 51.29 Hz    (15.5 %), step = 587.1 mHz   (45.5 m%)
    ac: freq = 51.88 Hz    (15.6 %), step = 593.9 mHz   (45.5 m%)
    ac: freq = 52.48 Hz    (15.6 %), step = 600.7 mHz   (45.5 m%)
    ac: freq = 53.09 Hz    (15.7 %), step = 607.7 mHz   (45.5 m%)
    ac: freq = 53.7 Hz     (15.7 %), step = 614.7 mHz   (45.5 m%)
    ac: freq = 54.33 Hz    (15.8 %), step = 621.9 mHz   (45.5 m%)
    ac: freq = 54.95 Hz    (15.8 %), step = 629.1 mHz   (45.5 m%)
    ac: freq = 55.59 Hz    (15.9 %), step = 636.3 mHz   (45.5 m%)
    ac: freq = 56.23 Hz    (15.9 %), step = 643.7 mHz   (45.5 m%)
    ac: freq = 56.89 Hz      (16 %), step = 651.2 mHz   (45.5 m%)
    ac: freq = 57.54 Hz      (16 %), step = 658.7 mHz   (45.5 m%)
    ac: freq = 58.21 Hz      (16 %), step = 666.3 mHz   (45.5 m%)
    ac: freq = 58.88 Hz    (16.1 %), step = 674 mHz     (45.5 m%)
    ac: freq = 59.57 Hz    (16.1 %), step = 681.8 mHz   (45.5 m%)
    ac: freq = 60.26 Hz    (16.2 %), step = 689.7 mHz   (45.5 m%)
    ac: freq = 60.95 Hz    (16.2 %), step = 697.7 mHz   (45.5 m%)
    ac: freq = 61.66 Hz    (16.3 %), step = 705.8 mHz   (45.5 m%)
    ac: freq = 62.37 Hz    (16.3 %), step = 714 mHz     (45.5 m%)
    ac: freq = 63.1 Hz     (16.4 %), step = 722.3 mHz   (45.5 m%)
    ac: freq = 63.83 Hz    (16.4 %), step = 730.6 mHz   (45.5 m%)
    ac: freq = 64.57 Hz    (16.5 %), step = 739.1 mHz   (45.5 m%)
    ac: freq = 65.31 Hz    (16.5 %), step = 747.6 mHz   (45.5 m%)
    ac: freq = 66.07 Hz    (16.5 %), step = 756.3 mHz   (45.5 m%)
    ac: freq = 66.83 Hz    (16.6 %), step = 765 mHz     (45.5 m%)
    ac: freq = 67.61 Hz    (16.6 %), step = 773.9 mHz   (45.5 m%)
    ac: freq = 68.39 Hz    (16.7 %), step = 782.9 mHz   (45.5 m%)
    ac: freq = 69.18 Hz    (16.7 %), step = 791.9 mHz   (45.5 m%)
    ac: freq = 69.98 Hz    (16.8 %), step = 801.1 mHz   (45.5 m%)
    ac: freq = 70.79 Hz    (16.8 %), step = 810.4 mHz   (45.5 m%)
    ac: freq = 71.61 Hz    (16.9 %), step = 819.8 mHz   (45.5 m%)
    ac: freq = 72.44 Hz    (16.9 %), step = 829.3 mHz   (45.5 m%)
    ac: freq = 73.28 Hz      (17 %), step = 838.9 mHz   (45.5 m%)
    ac: freq = 74.13 Hz      (17 %), step = 848.6 mHz   (45.5 m%)
    ac: freq = 74.99 Hz      (17 %), step = 858.4 mHz   (45.5 m%)
    ac: freq = 75.86 Hz    (17.1 %), step = 868.3 mHz   (45.5 m%)
    ac: freq = 76.74 Hz    (17.1 %), step = 878.4 mHz   (45.5 m%)
    ac: freq = 77.62 Hz    (17.2 %), step = 888.6 mHz   (45.5 m%)
    ac: freq = 78.52 Hz    (17.2 %), step = 898.9 mHz   (45.5 m%)
    ac: freq = 79.43 Hz    (17.3 %), step = 909.3 mHz   (45.5 m%)
    ac: freq = 80.35 Hz    (17.3 %), step = 919.8 mHz   (45.5 m%)
    ac: freq = 81.28 Hz    (17.4 %), step = 930.4 mHz   (45.5 m%)
    ac: freq = 82.22 Hz    (17.4 %), step = 941.2 mHz   (45.5 m%)
    ac: freq = 83.18 Hz    (17.5 %), step = 952.1 mHz   (45.5 m%)
    ac: freq = 84.14 Hz    (17.5 %), step = 963.1 mHz   (45.5 m%)
    ac: freq = 85.11 Hz    (17.5 %), step = 974.3 mHz   (45.5 m%)
    ac: freq = 86.1 Hz     (17.6 %), step = 985.6 mHz   (45.5 m%)
    ac: freq = 87.1 Hz     (17.6 %), step = 997 mHz     (45.5 m%)
    ac: freq = 88.1 Hz     (17.7 %), step = 1.009 Hz    (45.5 m%)
    ac: freq = 89.13 Hz    (17.7 %), step = 1.02 Hz     (45.5 m%)
    ac: freq = 90.16 Hz    (17.8 %), step = 1.032 Hz    (45.5 m%)
    ac: freq = 91.2 Hz     (17.8 %), step = 1.044 Hz    (45.5 m%)
    ac: freq = 92.26 Hz    (17.9 %), step = 1.056 Hz    (45.5 m%)
    ac: freq = 93.33 Hz    (17.9 %), step = 1.068 Hz    (45.5 m%)
    ac: freq = 94.41 Hz      (18 %), step = 1.081 Hz    (45.5 m%)
    ac: freq = 95.5 Hz       (18 %), step = 1.093 Hz    (45.5 m%)
    ac: freq = 96.61 Hz      (18 %), step = 1.106 Hz    (45.5 m%)
    ac: freq = 97.72 Hz    (18.1 %), step = 1.119 Hz    (45.5 m%)
    ac: freq = 98.86 Hz    (18.1 %), step = 1.132 Hz    (45.5 m%)
    ac: freq = 100 Hz      (18.2 %), step = 1.145 Hz    (45.5 m%)
    ac: freq = 101.2 Hz    (18.2 %), step = 1.158 Hz    (45.5 m%)
    ac: freq = 102.3 Hz    (18.3 %), step = 1.171 Hz    (45.5 m%)
    ac: freq = 103.5 Hz    (18.3 %), step = 1.185 Hz    (45.5 m%)
    ac: freq = 104.7 Hz    (18.4 %), step = 1.199 Hz    (45.5 m%)
    ac: freq = 105.9 Hz    (18.4 %), step = 1.213 Hz    (45.5 m%)
    ac: freq = 107.2 Hz    (18.5 %), step = 1.227 Hz    (45.5 m%)
    ac: freq = 108.4 Hz    (18.5 %), step = 1.241 Hz    (45.5 m%)
    ac: freq = 109.6 Hz    (18.5 %), step = 1.255 Hz    (45.5 m%)
    ac: freq = 110.9 Hz    (18.6 %), step = 1.27 Hz     (45.5 m%)
    ac: freq = 112.2 Hz    (18.6 %), step = 1.284 Hz    (45.5 m%)
    ac: freq = 113.5 Hz    (18.7 %), step = 1.299 Hz    (45.5 m%)
    ac: freq = 114.8 Hz    (18.7 %), step = 1.314 Hz    (45.5 m%)
    ac: freq = 116.1 Hz    (18.8 %), step = 1.329 Hz    (45.5 m%)
    ac: freq = 117.5 Hz    (18.8 %), step = 1.345 Hz    (45.5 m%)
    ac: freq = 118.9 Hz    (18.9 %), step = 1.36 Hz     (45.5 m%)
    ac: freq = 120.2 Hz    (18.9 %), step = 1.376 Hz    (45.5 m%)
    ac: freq = 121.6 Hz      (19 %), step = 1.392 Hz    (45.5 m%)
    ac: freq = 123 Hz        (19 %), step = 1.408 Hz    (45.5 m%)
    ac: freq = 124.5 Hz      (19 %), step = 1.425 Hz    (45.5 m%)
    ac: freq = 125.9 Hz    (19.1 %), step = 1.441 Hz    (45.5 m%)
    ac: freq = 127.4 Hz    (19.1 %), step = 1.458 Hz    (45.5 m%)
    ac: freq = 128.8 Hz    (19.2 %), step = 1.475 Hz    (45.5 m%)
    ac: freq = 130.3 Hz    (19.2 %), step = 1.492 Hz    (45.5 m%)
    ac: freq = 131.8 Hz    (19.3 %), step = 1.509 Hz    (45.5 m%)
    ac: freq = 133.4 Hz    (19.3 %), step = 1.526 Hz    (45.5 m%)
    ac: freq = 134.9 Hz    (19.4 %), step = 1.544 Hz    (45.5 m%)
    ac: freq = 136.5 Hz    (19.4 %), step = 1.562 Hz    (45.5 m%)
    ac: freq = 138 Hz      (19.5 %), step = 1.58 Hz     (45.5 m%)
    ac: freq = 139.6 Hz    (19.5 %), step = 1.598 Hz    (45.5 m%)
    ac: freq = 141.3 Hz    (19.5 %), step = 1.617 Hz    (45.5 m%)
    ac: freq = 142.9 Hz    (19.6 %), step = 1.636 Hz    (45.5 m%)
    ac: freq = 144.5 Hz    (19.6 %), step = 1.655 Hz    (45.5 m%)
    ac: freq = 146.2 Hz    (19.7 %), step = 1.674 Hz    (45.5 m%)
    ac: freq = 147.9 Hz    (19.7 %), step = 1.693 Hz    (45.5 m%)
    ac: freq = 149.6 Hz    (19.8 %), step = 1.713 Hz    (45.5 m%)
    ac: freq = 151.4 Hz    (19.8 %), step = 1.733 Hz    (45.5 m%)
    ac: freq = 153.1 Hz    (19.9 %), step = 1.753 Hz    (45.5 m%)
    ac: freq = 154.9 Hz    (19.9 %), step = 1.773 Hz    (45.5 m%)
    ac: freq = 156.7 Hz      (20 %), step = 1.793 Hz    (45.5 m%)
    ac: freq = 158.5 Hz      (20 %), step = 1.814 Hz    (45.5 m%)
    ac: freq = 160.3 Hz      (20 %), step = 1.835 Hz    (45.5 m%)
    ac: freq = 162.2 Hz    (20.1 %), step = 1.856 Hz    (45.5 m%)
    ac: freq = 164.1 Hz    (20.1 %), step = 1.878 Hz    (45.5 m%)
    ac: freq = 166 Hz      (20.2 %), step = 1.9 Hz      (45.5 m%)
    ac: freq = 167.9 Hz    (20.2 %), step = 1.922 Hz    (45.5 m%)
    ac: freq = 169.8 Hz    (20.3 %), step = 1.944 Hz    (45.5 m%)
    ac: freq = 171.8 Hz    (20.3 %), step = 1.966 Hz    (45.5 m%)
    ac: freq = 173.8 Hz    (20.4 %), step = 1.989 Hz    (45.5 m%)
    ac: freq = 175.8 Hz    (20.4 %), step = 2.012 Hz    (45.5 m%)
    ac: freq = 177.8 Hz    (20.5 %), step = 2.036 Hz    (45.5 m%)
    ac: freq = 179.9 Hz    (20.5 %), step = 2.059 Hz    (45.5 m%)
    ac: freq = 182 Hz      (20.5 %), step = 2.083 Hz    (45.5 m%)
    ac: freq = 184.1 Hz    (20.6 %), step = 2.107 Hz    (45.5 m%)
    ac: freq = 186.2 Hz    (20.6 %), step = 2.132 Hz    (45.5 m%)
    ac: freq = 188.4 Hz    (20.7 %), step = 2.156 Hz    (45.5 m%)
    ac: freq = 190.5 Hz    (20.7 %), step = 2.181 Hz    (45.5 m%)
    ac: freq = 192.8 Hz    (20.8 %), step = 2.206 Hz    (45.5 m%)
    ac: freq = 195 Hz      (20.8 %), step = 2.232 Hz    (45.5 m%)
    ac: freq = 197.2 Hz    (20.9 %), step = 2.258 Hz    (45.5 m%)
    ac: freq = 199.5 Hz    (20.9 %), step = 2.284 Hz    (45.5 m%)
    ac: freq = 201.8 Hz      (21 %), step = 2.31 Hz     (45.5 m%)
    ac: freq = 204.2 Hz      (21 %), step = 2.337 Hz    (45.5 m%)
    ac: freq = 206.5 Hz      (21 %), step = 2.364 Hz    (45.5 m%)
    ac: freq = 208.9 Hz    (21.1 %), step = 2.392 Hz    (45.5 m%)
    ac: freq = 211.3 Hz    (21.1 %), step = 2.419 Hz    (45.5 m%)
    ac: freq = 213.8 Hz    (21.2 %), step = 2.447 Hz    (45.5 m%)
    ac: freq = 216.3 Hz    (21.2 %), step = 2.476 Hz    (45.5 m%)
    ac: freq = 218.8 Hz    (21.3 %), step = 2.504 Hz    (45.5 m%)
    ac: freq = 221.3 Hz    (21.3 %), step = 2.533 Hz    (45.5 m%)
    ac: freq = 223.9 Hz    (21.4 %), step = 2.563 Hz    (45.5 m%)
    ac: freq = 226.5 Hz    (21.4 %), step = 2.592 Hz    (45.5 m%)
    ac: freq = 229.1 Hz    (21.5 %), step = 2.622 Hz    (45.5 m%)
    ac: freq = 231.7 Hz    (21.5 %), step = 2.653 Hz    (45.5 m%)
    ac: freq = 234.4 Hz    (21.5 %), step = 2.683 Hz    (45.5 m%)
    ac: freq = 237.1 Hz    (21.6 %), step = 2.714 Hz    (45.5 m%)
    ac: freq = 239.9 Hz    (21.6 %), step = 2.746 Hz    (45.5 m%)
    ac: freq = 242.7 Hz    (21.7 %), step = 2.778 Hz    (45.5 m%)
    ac: freq = 245.5 Hz    (21.7 %), step = 2.81 Hz     (45.5 m%)
    ac: freq = 248.3 Hz    (21.8 %), step = 2.842 Hz    (45.5 m%)
    ac: freq = 251.2 Hz    (21.8 %), step = 2.875 Hz    (45.5 m%)
    ac: freq = 254.1 Hz    (21.9 %), step = 2.909 Hz    (45.5 m%)
    ac: freq = 257 Hz      (21.9 %), step = 2.942 Hz    (45.5 m%)
    ac: freq = 260 Hz        (22 %), step = 2.976 Hz    (45.5 m%)
    ac: freq = 263 Hz        (22 %), step = 3.011 Hz    (45.5 m%)
    ac: freq = 266.1 Hz      (22 %), step = 3.046 Hz    (45.5 m%)
    ac: freq = 269.2 Hz    (22.1 %), step = 3.081 Hz    (45.5 m%)
    ac: freq = 272.3 Hz    (22.1 %), step = 3.117 Hz    (45.5 m%)
    ac: freq = 275.4 Hz    (22.2 %), step = 3.153 Hz    (45.5 m%)
    ac: freq = 278.6 Hz    (22.2 %), step = 3.189 Hz    (45.5 m%)
    ac: freq = 281.8 Hz    (22.3 %), step = 3.226 Hz    (45.5 m%)
    ac: freq = 285.1 Hz    (22.3 %), step = 3.264 Hz    (45.5 m%)
    ac: freq = 288.4 Hz    (22.4 %), step = 3.301 Hz    (45.5 m%)
    ac: freq = 291.7 Hz    (22.4 %), step = 3.34 Hz     (45.5 m%)
    ac: freq = 295.1 Hz    (22.5 %), step = 3.378 Hz    (45.5 m%)
    ac: freq = 298.5 Hz    (22.5 %), step = 3.417 Hz    (45.5 m%)
    ac: freq = 302 Hz      (22.5 %), step = 3.457 Hz    (45.5 m%)
    ac: freq = 305.5 Hz    (22.6 %), step = 3.497 Hz    (45.5 m%)
    ac: freq = 309 Hz      (22.6 %), step = 3.537 Hz    (45.5 m%)
    ac: freq = 312.6 Hz    (22.7 %), step = 3.578 Hz    (45.5 m%)
    ac: freq = 316.2 Hz    (22.7 %), step = 3.62 Hz     (45.5 m%)
    ac: freq = 319.9 Hz    (22.8 %), step = 3.662 Hz    (45.5 m%)
    ac: freq = 323.6 Hz    (22.8 %), step = 3.704 Hz    (45.5 m%)
    ac: freq = 327.3 Hz    (22.9 %), step = 3.747 Hz    (45.5 m%)
    ac: freq = 331.1 Hz    (22.9 %), step = 3.79 Hz     (45.5 m%)
    ac: freq = 335 Hz        (23 %), step = 3.834 Hz    (45.5 m%)
    ac: freq = 338.8 Hz      (23 %), step = 3.879 Hz    (45.5 m%)
    ac: freq = 342.8 Hz      (23 %), step = 3.924 Hz    (45.5 m%)
    ac: freq = 346.7 Hz    (23.1 %), step = 3.969 Hz    (45.5 m%)
    ac: freq = 350.8 Hz    (23.1 %), step = 4.015 Hz    (45.5 m%)
    ac: freq = 354.8 Hz    (23.2 %), step = 4.062 Hz    (45.5 m%)
    ac: freq = 358.9 Hz    (23.2 %), step = 4.109 Hz    (45.5 m%)
    ac: freq = 363.1 Hz    (23.3 %), step = 4.156 Hz    (45.5 m%)
    ac: freq = 367.3 Hz    (23.3 %), step = 4.204 Hz    (45.5 m%)
    ac: freq = 371.5 Hz    (23.4 %), step = 4.253 Hz    (45.5 m%)
    ac: freq = 375.8 Hz    (23.4 %), step = 4.302 Hz    (45.5 m%)
    ac: freq = 380.2 Hz    (23.5 %), step = 4.352 Hz    (45.5 m%)
    ac: freq = 384.6 Hz    (23.5 %), step = 4.402 Hz    (45.5 m%)
    ac: freq = 389 Hz      (23.5 %), step = 4.453 Hz    (45.5 m%)
    ac: freq = 393.6 Hz    (23.6 %), step = 4.505 Hz    (45.5 m%)
    ac: freq = 398.1 Hz    (23.6 %), step = 4.557 Hz    (45.5 m%)
    ac: freq = 402.7 Hz    (23.7 %), step = 4.61 Hz     (45.5 m%)
    ac: freq = 407.4 Hz    (23.7 %), step = 4.663 Hz    (45.5 m%)
    ac: freq = 412.1 Hz    (23.8 %), step = 4.717 Hz    (45.5 m%)
    ac: freq = 416.9 Hz    (23.8 %), step = 4.772 Hz    (45.5 m%)
    ac: freq = 421.7 Hz    (23.9 %), step = 4.827 Hz    (45.5 m%)
    ac: freq = 426.6 Hz    (23.9 %), step = 4.883 Hz    (45.5 m%)
    ac: freq = 431.5 Hz      (24 %), step = 4.94 Hz     (45.5 m%)
    ac: freq = 436.5 Hz      (24 %), step = 4.997 Hz    (45.5 m%)
    ac: freq = 441.6 Hz      (24 %), step = 5.055 Hz    (45.5 m%)
    ac: freq = 446.7 Hz    (24.1 %), step = 5.113 Hz    (45.5 m%)
    ac: freq = 451.9 Hz    (24.1 %), step = 5.172 Hz    (45.5 m%)
    ac: freq = 457.1 Hz    (24.2 %), step = 5.232 Hz    (45.5 m%)
    ac: freq = 462.4 Hz    (24.2 %), step = 5.293 Hz    (45.5 m%)
    ac: freq = 467.7 Hz    (24.3 %), step = 5.354 Hz    (45.5 m%)
    ac: freq = 473.2 Hz    (24.3 %), step = 5.416 Hz    (45.5 m%)
    ac: freq = 478.6 Hz    (24.4 %), step = 5.479 Hz    (45.5 m%)
    ac: freq = 484.2 Hz    (24.4 %), step = 5.542 Hz    (45.5 m%)
    ac: freq = 489.8 Hz    (24.5 %), step = 5.606 Hz    (45.5 m%)
    ac: freq = 495.5 Hz    (24.5 %), step = 5.671 Hz    (45.5 m%)
    ac: freq = 501.2 Hz    (24.5 %), step = 5.737 Hz    (45.5 m%)
    ac: freq = 507 Hz      (24.6 %), step = 5.803 Hz    (45.5 m%)
    ac: freq = 512.9 Hz    (24.6 %), step = 5.871 Hz    (45.5 m%)
    ac: freq = 518.8 Hz    (24.7 %), step = 5.939 Hz    (45.5 m%)
    ac: freq = 524.8 Hz    (24.7 %), step = 6.007 Hz    (45.5 m%)
    ac: freq = 530.9 Hz    (24.8 %), step = 6.077 Hz    (45.5 m%)
    ac: freq = 537 Hz      (24.8 %), step = 6.147 Hz    (45.5 m%)
    ac: freq = 543.3 Hz    (24.9 %), step = 6.219 Hz    (45.5 m%)
    ac: freq = 549.5 Hz    (24.9 %), step = 6.291 Hz    (45.5 m%)
    ac: freq = 555.9 Hz      (25 %), step = 6.363 Hz    (45.5 m%)
    ac: freq = 562.3 Hz      (25 %), step = 6.437 Hz    (45.5 m%)
    ac: freq = 568.9 Hz      (25 %), step = 6.512 Hz    (45.5 m%)
    ac: freq = 575.4 Hz    (25.1 %), step = 6.587 Hz    (45.5 m%)
    ac: freq = 582.1 Hz    (25.1 %), step = 6.663 Hz    (45.5 m%)
    ac: freq = 588.8 Hz    (25.2 %), step = 6.74 Hz     (45.5 m%)
    ac: freq = 595.7 Hz    (25.2 %), step = 6.818 Hz    (45.5 m%)
    ac: freq = 602.6 Hz    (25.3 %), step = 6.897 Hz    (45.5 m%)
    ac: freq = 609.5 Hz    (25.3 %), step = 6.977 Hz    (45.5 m%)
    ac: freq = 616.6 Hz    (25.4 %), step = 7.058 Hz    (45.5 m%)
    ac: freq = 623.7 Hz    (25.4 %), step = 7.14 Hz     (45.5 m%)
    ac: freq = 631 Hz      (25.5 %), step = 7.223 Hz    (45.5 m%)
    ac: freq = 638.3 Hz    (25.5 %), step = 7.306 Hz    (45.5 m%)
    ac: freq = 645.7 Hz    (25.5 %), step = 7.391 Hz    (45.5 m%)
    ac: freq = 653.1 Hz    (25.6 %), step = 7.476 Hz    (45.5 m%)
    ac: freq = 660.7 Hz    (25.6 %), step = 7.563 Hz    (45.5 m%)
    ac: freq = 668.3 Hz    (25.7 %), step = 7.65 Hz     (45.5 m%)
    ac: freq = 676.1 Hz    (25.7 %), step = 7.739 Hz    (45.5 m%)
    ac: freq = 683.9 Hz    (25.8 %), step = 7.829 Hz    (45.5 m%)
    ac: freq = 691.8 Hz    (25.8 %), step = 7.919 Hz    (45.5 m%)
    ac: freq = 699.8 Hz    (25.9 %), step = 8.011 Hz    (45.5 m%)
    ac: freq = 707.9 Hz    (25.9 %), step = 8.104 Hz    (45.5 m%)
    ac: freq = 716.1 Hz      (26 %), step = 8.198 Hz    (45.5 m%)
    ac: freq = 724.4 Hz      (26 %), step = 8.293 Hz    (45.5 m%)
    ac: freq = 732.8 Hz      (26 %), step = 8.389 Hz    (45.5 m%)
    ac: freq = 741.3 Hz    (26.1 %), step = 8.486 Hz    (45.5 m%)
    ac: freq = 749.9 Hz    (26.1 %), step = 8.584 Hz    (45.5 m%)
    ac: freq = 758.6 Hz    (26.2 %), step = 8.683 Hz    (45.5 m%)
    ac: freq = 767.4 Hz    (26.2 %), step = 8.784 Hz    (45.5 m%)
    ac: freq = 776.2 Hz    (26.3 %), step = 8.886 Hz    (45.5 m%)
    ac: freq = 785.2 Hz    (26.3 %), step = 8.989 Hz    (45.5 m%)
    ac: freq = 794.3 Hz    (26.4 %), step = 9.093 Hz    (45.5 m%)
    ac: freq = 803.5 Hz    (26.4 %), step = 9.198 Hz    (45.5 m%)
    ac: freq = 812.8 Hz    (26.5 %), step = 9.304 Hz    (45.5 m%)
    ac: freq = 822.2 Hz    (26.5 %), step = 9.412 Hz    (45.5 m%)
    ac: freq = 831.8 Hz    (26.5 %), step = 9.521 Hz    (45.5 m%)
    ac: freq = 841.4 Hz    (26.6 %), step = 9.631 Hz    (45.5 m%)
    ac: freq = 851.1 Hz    (26.6 %), step = 9.743 Hz    (45.5 m%)
    ac: freq = 861 Hz      (26.7 %), step = 9.856 Hz    (45.5 m%)
    ac: freq = 871 Hz      (26.7 %), step = 9.97 Hz     (45.5 m%)
    ac: freq = 881 Hz      (26.8 %), step = 10.09 Hz    (45.5 m%)
    ac: freq = 891.3 Hz    (26.8 %), step = 10.2 Hz     (45.5 m%)
    ac: freq = 901.6 Hz    (26.9 %), step = 10.32 Hz    (45.5 m%)
    ac: freq = 912 Hz      (26.9 %), step = 10.44 Hz    (45.5 m%)
    ac: freq = 922.6 Hz      (27 %), step = 10.56 Hz    (45.5 m%)
    ac: freq = 933.3 Hz      (27 %), step = 10.68 Hz    (45.5 m%)
    ac: freq = 944.1 Hz      (27 %), step = 10.81 Hz    (45.5 m%)
    ac: freq = 955 Hz      (27.1 %), step = 10.93 Hz    (45.5 m%)
    ac: freq = 966.1 Hz    (27.1 %), step = 11.06 Hz    (45.5 m%)
    ac: freq = 977.2 Hz    (27.2 %), step = 11.19 Hz    (45.5 m%)
    ac: freq = 988.6 Hz    (27.2 %), step = 11.32 Hz    (45.5 m%)
    ac: freq = 1 kHz       (27.3 %), step = 11.45 Hz    (45.5 m%)
    ac: freq = 1.012 kHz   (27.3 %), step = 11.58 Hz    (45.5 m%)
    ac: freq = 1.023 kHz   (27.4 %), step = 11.71 Hz    (45.5 m%)
    ac: freq = 1.035 kHz   (27.4 %), step = 11.85 Hz    (45.5 m%)
    ac: freq = 1.047 kHz   (27.5 %), step = 11.99 Hz    (45.5 m%)
    ac: freq = 1.059 kHz   (27.5 %), step = 12.13 Hz    (45.5 m%)
    ac: freq = 1.072 kHz   (27.5 %), step = 12.27 Hz    (45.5 m%)
    ac: freq = 1.084 kHz   (27.6 %), step = 12.41 Hz    (45.5 m%)
    ac: freq = 1.096 kHz   (27.6 %), step = 12.55 Hz    (45.5 m%)
    ac: freq = 1.109 kHz   (27.7 %), step = 12.7 Hz     (45.5 m%)
    ac: freq = 1.122 kHz   (27.7 %), step = 12.84 Hz    (45.5 m%)
    ac: freq = 1.135 kHz   (27.8 %), step = 12.99 Hz    (45.5 m%)
    ac: freq = 1.148 kHz   (27.8 %), step = 13.14 Hz    (45.5 m%)
    ac: freq = 1.161 kHz   (27.9 %), step = 13.29 Hz    (45.5 m%)
    ac: freq = 1.175 kHz   (27.9 %), step = 13.45 Hz    (45.5 m%)
    ac: freq = 1.189 kHz     (28 %), step = 13.6 Hz     (45.5 m%)
    ac: freq = 1.202 kHz     (28 %), step = 13.76 Hz    (45.5 m%)
    ac: freq = 1.216 kHz     (28 %), step = 13.92 Hz    (45.5 m%)
    ac: freq = 1.23 kHz    (28.1 %), step = 14.08 Hz    (45.5 m%)
    ac: freq = 1.245 kHz   (28.1 %), step = 14.25 Hz    (45.5 m%)
    ac: freq = 1.259 kHz   (28.2 %), step = 14.41 Hz    (45.5 m%)
    ac: freq = 1.274 kHz   (28.2 %), step = 14.58 Hz    (45.5 m%)
    ac: freq = 1.288 kHz   (28.3 %), step = 14.75 Hz    (45.5 m%)
    ac: freq = 1.303 kHz   (28.3 %), step = 14.92 Hz    (45.5 m%)
    ac: freq = 1.318 kHz   (28.4 %), step = 15.09 Hz    (45.5 m%)
    ac: freq = 1.334 kHz   (28.4 %), step = 15.26 Hz    (45.5 m%)
    ac: freq = 1.349 kHz   (28.5 %), step = 15.44 Hz    (45.5 m%)
    ac: freq = 1.365 kHz   (28.5 %), step = 15.62 Hz    (45.5 m%)
    ac: freq = 1.38 kHz    (28.5 %), step = 15.8 Hz     (45.5 m%)
    ac: freq = 1.396 kHz   (28.6 %), step = 15.98 Hz    (45.5 m%)
    ac: freq = 1.413 kHz   (28.6 %), step = 16.17 Hz    (45.5 m%)
    ac: freq = 1.429 kHz   (28.7 %), step = 16.36 Hz    (45.5 m%)
    ac: freq = 1.445 kHz   (28.7 %), step = 16.55 Hz    (45.5 m%)
    ac: freq = 1.462 kHz   (28.8 %), step = 16.74 Hz    (45.5 m%)
    ac: freq = 1.479 kHz   (28.8 %), step = 16.93 Hz    (45.5 m%)
    ac: freq = 1.496 kHz   (28.9 %), step = 17.13 Hz    (45.5 m%)
    ac: freq = 1.514 kHz   (28.9 %), step = 17.33 Hz    (45.5 m%)
    ac: freq = 1.531 kHz     (29 %), step = 17.53 Hz    (45.5 m%)
    ac: freq = 1.549 kHz     (29 %), step = 17.73 Hz    (45.5 m%)
    ac: freq = 1.567 kHz     (29 %), step = 17.93 Hz    (45.5 m%)
    ac: freq = 1.585 kHz   (29.1 %), step = 18.14 Hz    (45.5 m%)
    ac: freq = 1.603 kHz   (29.1 %), step = 18.35 Hz    (45.5 m%)
    ac: freq = 1.622 kHz   (29.2 %), step = 18.56 Hz    (45.5 m%)
    ac: freq = 1.641 kHz   (29.2 %), step = 18.78 Hz    (45.5 m%)
    ac: freq = 1.66 kHz    (29.3 %), step = 19 Hz       (45.5 m%)
    ac: freq = 1.679 kHz   (29.3 %), step = 19.22 Hz    (45.5 m%)
    ac: freq = 1.698 kHz   (29.4 %), step = 19.44 Hz    (45.5 m%)
    ac: freq = 1.718 kHz   (29.4 %), step = 19.66 Hz    (45.5 m%)
    ac: freq = 1.738 kHz   (29.5 %), step = 19.89 Hz    (45.5 m%)
    ac: freq = 1.758 kHz   (29.5 %), step = 20.12 Hz    (45.5 m%)
    ac: freq = 1.778 kHz   (29.5 %), step = 20.36 Hz    (45.5 m%)
    ac: freq = 1.799 kHz   (29.6 %), step = 20.59 Hz    (45.5 m%)
    ac: freq = 1.82 kHz    (29.6 %), step = 20.83 Hz    (45.5 m%)
    ac: freq = 1.841 kHz   (29.7 %), step = 21.07 Hz    (45.5 m%)
    ac: freq = 1.862 kHz   (29.7 %), step = 21.32 Hz    (45.5 m%)
    ac: freq = 1.884 kHz   (29.8 %), step = 21.56 Hz    (45.5 m%)
    ac: freq = 1.905 kHz   (29.8 %), step = 21.81 Hz    (45.5 m%)
    ac: freq = 1.928 kHz   (29.9 %), step = 22.06 Hz    (45.5 m%)
    ac: freq = 1.95 kHz    (29.9 %), step = 22.32 Hz    (45.5 m%)
    ac: freq = 1.972 kHz     (30 %), step = 22.58 Hz    (45.5 m%)
    ac: freq = 1.995 kHz     (30 %), step = 22.84 Hz    (45.5 m%)
    ac: freq = 2.018 kHz     (30 %), step = 23.1 Hz     (45.5 m%)
    ac: freq = 2.042 kHz   (30.1 %), step = 23.37 Hz    (45.5 m%)
    ac: freq = 2.065 kHz   (30.1 %), step = 23.64 Hz    (45.5 m%)
    ac: freq = 2.089 kHz   (30.2 %), step = 23.92 Hz    (45.5 m%)
    ac: freq = 2.113 kHz   (30.2 %), step = 24.19 Hz    (45.5 m%)
    ac: freq = 2.138 kHz   (30.3 %), step = 24.47 Hz    (45.5 m%)
    ac: freq = 2.163 kHz   (30.3 %), step = 24.76 Hz    (45.5 m%)
    ac: freq = 2.188 kHz   (30.4 %), step = 25.04 Hz    (45.5 m%)
    ac: freq = 2.213 kHz   (30.4 %), step = 25.33 Hz    (45.5 m%)
    ac: freq = 2.239 kHz   (30.5 %), step = 25.63 Hz    (45.5 m%)
    ac: freq = 2.265 kHz   (30.5 %), step = 25.92 Hz    (45.5 m%)
    ac: freq = 2.291 kHz   (30.5 %), step = 26.22 Hz    (45.5 m%)
    ac: freq = 2.317 kHz   (30.6 %), step = 26.53 Hz    (45.5 m%)
    ac: freq = 2.344 kHz   (30.6 %), step = 26.83 Hz    (45.5 m%)
    ac: freq = 2.371 kHz   (30.7 %), step = 27.14 Hz    (45.5 m%)
    ac: freq = 2.399 kHz   (30.7 %), step = 27.46 Hz    (45.5 m%)
    ac: freq = 2.427 kHz   (30.8 %), step = 27.78 Hz    (45.5 m%)
    ac: freq = 2.455 kHz   (30.8 %), step = 28.1 Hz     (45.5 m%)
    ac: freq = 2.483 kHz   (30.9 %), step = 28.42 Hz    (45.5 m%)
    ac: freq = 2.512 kHz   (30.9 %), step = 28.75 Hz    (45.5 m%)
    ac: freq = 2.541 kHz     (31 %), step = 29.09 Hz    (45.5 m%)
    ac: freq = 2.57 kHz      (31 %), step = 29.42 Hz    (45.5 m%)
    ac: freq = 2.6 kHz       (31 %), step = 29.76 Hz    (45.5 m%)
    ac: freq = 2.63 kHz    (31.1 %), step = 30.11 Hz    (45.5 m%)
    ac: freq = 2.661 kHz   (31.1 %), step = 30.46 Hz    (45.5 m%)
    ac: freq = 2.692 kHz   (31.2 %), step = 30.81 Hz    (45.5 m%)
    ac: freq = 2.723 kHz   (31.2 %), step = 31.17 Hz    (45.5 m%)
    ac: freq = 2.754 kHz   (31.3 %), step = 31.53 Hz    (45.5 m%)
    ac: freq = 2.786 kHz   (31.3 %), step = 31.89 Hz    (45.5 m%)
    ac: freq = 2.818 kHz   (31.4 %), step = 32.26 Hz    (45.5 m%)
    ac: freq = 2.851 kHz   (31.4 %), step = 32.64 Hz    (45.5 m%)
    ac: freq = 2.884 kHz   (31.5 %), step = 33.01 Hz    (45.5 m%)
    ac: freq = 2.917 kHz   (31.5 %), step = 33.4 Hz     (45.5 m%)
    ac: freq = 2.951 kHz   (31.5 %), step = 33.78 Hz    (45.5 m%)
    ac: freq = 2.985 kHz   (31.6 %), step = 34.17 Hz    (45.5 m%)
    ac: freq = 3.02 kHz    (31.6 %), step = 34.57 Hz    (45.5 m%)
    ac: freq = 3.055 kHz   (31.7 %), step = 34.97 Hz    (45.5 m%)
    ac: freq = 3.09 kHz    (31.7 %), step = 35.37 Hz    (45.5 m%)
    ac: freq = 3.126 kHz   (31.8 %), step = 35.78 Hz    (45.5 m%)
    ac: freq = 3.162 kHz   (31.8 %), step = 36.2 Hz     (45.5 m%)
    ac: freq = 3.199 kHz   (31.9 %), step = 36.62 Hz    (45.5 m%)
    ac: freq = 3.236 kHz   (31.9 %), step = 37.04 Hz    (45.5 m%)
    ac: freq = 3.273 kHz     (32 %), step = 37.47 Hz    (45.5 m%)
    ac: freq = 3.311 kHz     (32 %), step = 37.9 Hz     (45.5 m%)
    ac: freq = 3.35 kHz      (32 %), step = 38.34 Hz    (45.5 m%)
    ac: freq = 3.388 kHz   (32.1 %), step = 38.79 Hz    (45.5 m%)
    ac: freq = 3.428 kHz   (32.1 %), step = 39.24 Hz    (45.5 m%)
    ac: freq = 3.467 kHz   (32.2 %), step = 39.69 Hz    (45.5 m%)
    ac: freq = 3.508 kHz   (32.2 %), step = 40.15 Hz    (45.5 m%)
    ac: freq = 3.548 kHz   (32.3 %), step = 40.62 Hz    (45.5 m%)
    ac: freq = 3.589 kHz   (32.3 %), step = 41.09 Hz    (45.5 m%)
    ac: freq = 3.631 kHz   (32.4 %), step = 41.56 Hz    (45.5 m%)
    ac: freq = 3.673 kHz   (32.4 %), step = 42.04 Hz    (45.5 m%)
    ac: freq = 3.715 kHz   (32.5 %), step = 42.53 Hz    (45.5 m%)
    ac: freq = 3.758 kHz   (32.5 %), step = 43.02 Hz    (45.5 m%)
    ac: freq = 3.802 kHz   (32.5 %), step = 43.52 Hz    (45.5 m%)
    ac: freq = 3.846 kHz   (32.6 %), step = 44.02 Hz    (45.5 m%)
    ac: freq = 3.89 kHz    (32.6 %), step = 44.53 Hz    (45.5 m%)
    ac: freq = 3.936 kHz   (32.7 %), step = 45.05 Hz    (45.5 m%)
    ac: freq = 3.981 kHz   (32.7 %), step = 45.57 Hz    (45.5 m%)
    ac: freq = 4.027 kHz   (32.8 %), step = 46.1 Hz     (45.5 m%)
    ac: freq = 4.074 kHz   (32.8 %), step = 46.63 Hz    (45.5 m%)
    ac: freq = 4.121 kHz   (32.9 %), step = 47.17 Hz    (45.5 m%)
    ac: freq = 4.169 kHz   (32.9 %), step = 47.72 Hz    (45.5 m%)
    ac: freq = 4.217 kHz     (33 %), step = 48.27 Hz    (45.5 m%)
    ac: freq = 4.266 kHz     (33 %), step = 48.83 Hz    (45.5 m%)
    ac: freq = 4.315 kHz     (33 %), step = 49.4 Hz     (45.5 m%)
    ac: freq = 4.365 kHz   (33.1 %), step = 49.97 Hz    (45.5 m%)
    ac: freq = 4.416 kHz   (33.1 %), step = 50.55 Hz    (45.5 m%)
    ac: freq = 4.467 kHz   (33.2 %), step = 51.13 Hz    (45.5 m%)
    ac: freq = 4.519 kHz   (33.2 %), step = 51.72 Hz    (45.5 m%)
    ac: freq = 4.571 kHz   (33.3 %), step = 52.32 Hz    (45.5 m%)
    ac: freq = 4.624 kHz   (33.3 %), step = 52.93 Hz    (45.5 m%)
    ac: freq = 4.677 kHz   (33.4 %), step = 53.54 Hz    (45.5 m%)
    ac: freq = 4.732 kHz   (33.4 %), step = 54.16 Hz    (45.5 m%)
    ac: freq = 4.786 kHz   (33.5 %), step = 54.79 Hz    (45.5 m%)
    ac: freq = 4.842 kHz   (33.5 %), step = 55.42 Hz    (45.5 m%)
    ac: freq = 4.898 kHz   (33.5 %), step = 56.06 Hz    (45.5 m%)
    ac: freq = 4.955 kHz   (33.6 %), step = 56.71 Hz    (45.5 m%)
    ac: freq = 5.012 kHz   (33.6 %), step = 57.37 Hz    (45.5 m%)
    ac: freq = 5.07 kHz    (33.7 %), step = 58.03 Hz    (45.5 m%)
    ac: freq = 5.129 kHz   (33.7 %), step = 58.71 Hz    (45.5 m%)
    ac: freq = 5.188 kHz   (33.8 %), step = 59.39 Hz    (45.5 m%)
    ac: freq = 5.248 kHz   (33.8 %), step = 60.07 Hz    (45.5 m%)
    ac: freq = 5.309 kHz   (33.9 %), step = 60.77 Hz    (45.5 m%)
    ac: freq = 5.37 kHz    (33.9 %), step = 61.47 Hz    (45.5 m%)
    ac: freq = 5.433 kHz     (34 %), step = 62.19 Hz    (45.5 m%)
    ac: freq = 5.495 kHz     (34 %), step = 62.91 Hz    (45.5 m%)
    ac: freq = 5.559 kHz     (34 %), step = 63.63 Hz    (45.5 m%)
    ac: freq = 5.623 kHz   (34.1 %), step = 64.37 Hz    (45.5 m%)
    ac: freq = 5.689 kHz   (34.1 %), step = 65.12 Hz    (45.5 m%)
    ac: freq = 5.754 kHz   (34.2 %), step = 65.87 Hz    (45.5 m%)
    ac: freq = 5.821 kHz   (34.2 %), step = 66.63 Hz    (45.5 m%)
    ac: freq = 5.888 kHz   (34.3 %), step = 67.4 Hz     (45.5 m%)
    ac: freq = 5.957 kHz   (34.3 %), step = 68.18 Hz    (45.5 m%)
    ac: freq = 6.026 kHz   (34.4 %), step = 68.97 Hz    (45.5 m%)
    ac: freq = 6.095 kHz   (34.4 %), step = 69.77 Hz    (45.5 m%)
    ac: freq = 6.166 kHz   (34.5 %), step = 70.58 Hz    (45.5 m%)
    ac: freq = 6.237 kHz   (34.5 %), step = 71.4 Hz     (45.5 m%)
    ac: freq = 6.31 kHz    (34.5 %), step = 72.23 Hz    (45.5 m%)
    ac: freq = 6.383 kHz   (34.6 %), step = 73.06 Hz    (45.5 m%)
    ac: freq = 6.457 kHz   (34.6 %), step = 73.91 Hz    (45.5 m%)
    ac: freq = 6.531 kHz   (34.7 %), step = 74.76 Hz    (45.5 m%)
    ac: freq = 6.607 kHz   (34.7 %), step = 75.63 Hz    (45.5 m%)
    ac: freq = 6.683 kHz   (34.8 %), step = 76.5 Hz     (45.5 m%)
    ac: freq = 6.761 kHz   (34.8 %), step = 77.39 Hz    (45.5 m%)
    ac: freq = 6.839 kHz   (34.9 %), step = 78.29 Hz    (45.5 m%)
    ac: freq = 6.918 kHz   (34.9 %), step = 79.19 Hz    (45.5 m%)
    ac: freq = 6.998 kHz     (35 %), step = 80.11 Hz    (45.5 m%)
    ac: freq = 7.079 kHz     (35 %), step = 81.04 Hz    (45.5 m%)
    ac: freq = 7.161 kHz     (35 %), step = 81.98 Hz    (45.5 m%)
    ac: freq = 7.244 kHz   (35.1 %), step = 82.93 Hz    (45.5 m%)
    ac: freq = 7.328 kHz   (35.1 %), step = 83.89 Hz    (45.5 m%)
    ac: freq = 7.413 kHz   (35.2 %), step = 84.86 Hz    (45.5 m%)
    ac: freq = 7.499 kHz   (35.2 %), step = 85.84 Hz    (45.5 m%)
    ac: freq = 7.586 kHz   (35.3 %), step = 86.83 Hz    (45.5 m%)
    ac: freq = 7.674 kHz   (35.3 %), step = 87.84 Hz    (45.5 m%)
    ac: freq = 7.762 kHz   (35.4 %), step = 88.86 Hz    (45.5 m%)
    ac: freq = 7.852 kHz   (35.4 %), step = 89.89 Hz    (45.5 m%)
    ac: freq = 7.943 kHz   (35.5 %), step = 90.93 Hz    (45.5 m%)
    ac: freq = 8.035 kHz   (35.5 %), step = 91.98 Hz    (45.5 m%)
    ac: freq = 8.128 kHz   (35.5 %), step = 93.04 Hz    (45.5 m%)
    ac: freq = 8.222 kHz   (35.6 %), step = 94.12 Hz    (45.5 m%)
    ac: freq = 8.318 kHz   (35.6 %), step = 95.21 Hz    (45.5 m%)
    ac: freq = 8.414 kHz   (35.7 %), step = 96.31 Hz    (45.5 m%)
    ac: freq = 8.511 kHz   (35.7 %), step = 97.43 Hz    (45.5 m%)
    ac: freq = 8.61 kHz    (35.8 %), step = 98.56 Hz    (45.5 m%)
    ac: freq = 8.71 kHz    (35.8 %), step = 99.7 Hz     (45.5 m%)
    ac: freq = 8.81 kHz    (35.9 %), step = 100.9 Hz    (45.5 m%)
    ac: freq = 8.913 kHz   (35.9 %), step = 102 Hz      (45.5 m%)
    ac: freq = 9.016 kHz     (36 %), step = 103.2 Hz    (45.5 m%)
    ac: freq = 9.12 kHz      (36 %), step = 104.4 Hz    (45.5 m%)
    ac: freq = 9.226 kHz     (36 %), step = 105.6 Hz    (45.5 m%)
    ac: freq = 9.333 kHz   (36.1 %), step = 106.8 Hz    (45.5 m%)
    ac: freq = 9.441 kHz   (36.1 %), step = 108.1 Hz    (45.5 m%)
    ac: freq = 9.55 kHz    (36.2 %), step = 109.3 Hz    (45.5 m%)
    ac: freq = 9.661 kHz   (36.2 %), step = 110.6 Hz    (45.5 m%)
    ac: freq = 9.772 kHz   (36.3 %), step = 111.9 Hz    (45.5 m%)
    ac: freq = 9.886 kHz   (36.3 %), step = 113.2 Hz    (45.5 m%)
    ac: freq = 10 kHz      (36.4 %), step = 114.5 Hz    (45.5 m%)
    ac: freq = 10.12 kHz   (36.4 %), step = 115.8 Hz    (45.5 m%)
    ac: freq = 10.23 kHz   (36.5 %), step = 117.1 Hz    (45.5 m%)
    ac: freq = 10.35 kHz   (36.5 %), step = 118.5 Hz    (45.5 m%)
    ac: freq = 10.47 kHz   (36.5 %), step = 119.9 Hz    (45.5 m%)
    ac: freq = 10.59 kHz   (36.6 %), step = 121.3 Hz    (45.5 m%)
    ac: freq = 10.72 kHz   (36.6 %), step = 122.7 Hz    (45.5 m%)
    ac: freq = 10.84 kHz   (36.7 %), step = 124.1 Hz    (45.5 m%)
    ac: freq = 10.96 kHz   (36.7 %), step = 125.5 Hz    (45.5 m%)
    ac: freq = 11.09 kHz   (36.8 %), step = 127 Hz      (45.5 m%)
    ac: freq = 11.22 kHz   (36.8 %), step = 128.4 Hz    (45.5 m%)
    ac: freq = 11.35 kHz   (36.9 %), step = 129.9 Hz    (45.5 m%)
    ac: freq = 11.48 kHz   (36.9 %), step = 131.4 Hz    (45.5 m%)
    ac: freq = 11.61 kHz     (37 %), step = 132.9 Hz    (45.5 m%)
    ac: freq = 11.75 kHz     (37 %), step = 134.5 Hz    (45.5 m%)
    ac: freq = 11.89 kHz     (37 %), step = 136 Hz      (45.5 m%)
    ac: freq = 12.02 kHz   (37.1 %), step = 137.6 Hz    (45.5 m%)
    ac: freq = 12.16 kHz   (37.1 %), step = 139.2 Hz    (45.5 m%)
    ac: freq = 12.3 kHz    (37.2 %), step = 140.8 Hz    (45.5 m%)
    ac: freq = 12.45 kHz   (37.2 %), step = 142.5 Hz    (45.5 m%)
    ac: freq = 12.59 kHz   (37.3 %), step = 144.1 Hz    (45.5 m%)
    ac: freq = 12.74 kHz   (37.3 %), step = 145.8 Hz    (45.5 m%)
    ac: freq = 12.88 kHz   (37.4 %), step = 147.5 Hz    (45.5 m%)
    ac: freq = 13.03 kHz   (37.4 %), step = 149.2 Hz    (45.5 m%)
    ac: freq = 13.18 kHz   (37.5 %), step = 150.9 Hz    (45.5 m%)
    ac: freq = 13.34 kHz   (37.5 %), step = 152.6 Hz    (45.5 m%)
    ac: freq = 13.49 kHz   (37.5 %), step = 154.4 Hz    (45.5 m%)
    ac: freq = 13.65 kHz   (37.6 %), step = 156.2 Hz    (45.5 m%)
    ac: freq = 13.8 kHz    (37.6 %), step = 158 Hz      (45.5 m%)
    ac: freq = 13.96 kHz   (37.7 %), step = 159.8 Hz    (45.5 m%)
    ac: freq = 14.13 kHz   (37.7 %), step = 161.7 Hz    (45.5 m%)
    ac: freq = 14.29 kHz   (37.8 %), step = 163.6 Hz    (45.5 m%)
    ac: freq = 14.45 kHz   (37.8 %), step = 165.5 Hz    (45.5 m%)
    ac: freq = 14.62 kHz   (37.9 %), step = 167.4 Hz    (45.5 m%)
    ac: freq = 14.79 kHz   (37.9 %), step = 169.3 Hz    (45.5 m%)
    ac: freq = 14.96 kHz     (38 %), step = 171.3 Hz    (45.5 m%)
    ac: freq = 15.14 kHz     (38 %), step = 173.3 Hz    (45.5 m%)
    ac: freq = 15.31 kHz     (38 %), step = 175.3 Hz    (45.5 m%)
    ac: freq = 15.49 kHz   (38.1 %), step = 177.3 Hz    (45.5 m%)
    ac: freq = 15.67 kHz   (38.1 %), step = 179.3 Hz    (45.5 m%)
    ac: freq = 15.85 kHz   (38.2 %), step = 181.4 Hz    (45.5 m%)
    ac: freq = 16.03 kHz   (38.2 %), step = 183.5 Hz    (45.5 m%)
    ac: freq = 16.22 kHz   (38.3 %), step = 185.6 Hz    (45.5 m%)
    ac: freq = 16.41 kHz   (38.3 %), step = 187.8 Hz    (45.5 m%)
    ac: freq = 16.6 kHz    (38.4 %), step = 190 Hz      (45.5 m%)
    ac: freq = 16.79 kHz   (38.4 %), step = 192.2 Hz    (45.5 m%)
    ac: freq = 16.98 kHz   (38.5 %), step = 194.4 Hz    (45.5 m%)
    ac: freq = 17.18 kHz   (38.5 %), step = 196.6 Hz    (45.5 m%)
    ac: freq = 17.38 kHz   (38.5 %), step = 198.9 Hz    (45.5 m%)
    ac: freq = 17.58 kHz   (38.6 %), step = 201.2 Hz    (45.5 m%)
    ac: freq = 17.78 kHz   (38.6 %), step = 203.6 Hz    (45.5 m%)
    ac: freq = 17.99 kHz   (38.7 %), step = 205.9 Hz    (45.5 m%)
    ac: freq = 18.2 kHz    (38.7 %), step = 208.3 Hz    (45.5 m%)
    ac: freq = 18.41 kHz   (38.8 %), step = 210.7 Hz    (45.5 m%)
    ac: freq = 18.62 kHz   (38.8 %), step = 213.2 Hz    (45.5 m%)
    ac: freq = 18.84 kHz   (38.9 %), step = 215.6 Hz    (45.5 m%)
    ac: freq = 19.05 kHz   (38.9 %), step = 218.1 Hz    (45.5 m%)
    ac: freq = 19.28 kHz     (39 %), step = 220.6 Hz    (45.5 m%)
    ac: freq = 19.5 kHz      (39 %), step = 223.2 Hz    (45.5 m%)
    ac: freq = 19.72 kHz     (39 %), step = 225.8 Hz    (45.5 m%)
    ac: freq = 19.95 kHz   (39.1 %), step = 228.4 Hz    (45.5 m%)
    ac: freq = 20.18 kHz   (39.1 %), step = 231 Hz      (45.5 m%)
    ac: freq = 20.42 kHz   (39.2 %), step = 233.7 Hz    (45.5 m%)
    ac: freq = 20.65 kHz   (39.2 %), step = 236.4 Hz    (45.5 m%)
    ac: freq = 20.89 kHz   (39.3 %), step = 239.2 Hz    (45.5 m%)
    ac: freq = 21.13 kHz   (39.3 %), step = 241.9 Hz    (45.5 m%)
    ac: freq = 21.38 kHz   (39.4 %), step = 244.7 Hz    (45.5 m%)
    ac: freq = 21.63 kHz   (39.4 %), step = 247.6 Hz    (45.5 m%)
    ac: freq = 21.88 kHz   (39.5 %), step = 250.4 Hz    (45.5 m%)
    ac: freq = 22.13 kHz   (39.5 %), step = 253.3 Hz    (45.5 m%)
    ac: freq = 22.39 kHz   (39.5 %), step = 256.3 Hz    (45.5 m%)
    ac: freq = 22.65 kHz   (39.6 %), step = 259.2 Hz    (45.5 m%)
    ac: freq = 22.91 kHz   (39.6 %), step = 262.2 Hz    (45.5 m%)
    ac: freq = 23.17 kHz   (39.7 %), step = 265.3 Hz    (45.5 m%)
    ac: freq = 23.44 kHz   (39.7 %), step = 268.3 Hz    (45.5 m%)
    ac: freq = 23.71 kHz   (39.8 %), step = 271.4 Hz    (45.5 m%)
    ac: freq = 23.99 kHz   (39.8 %), step = 274.6 Hz    (45.5 m%)
    ac: freq = 24.27 kHz   (39.9 %), step = 277.8 Hz    (45.5 m%)
    ac: freq = 24.55 kHz   (39.9 %), step = 281 Hz      (45.5 m%)
    ac: freq = 24.83 kHz     (40 %), step = 284.2 Hz    (45.5 m%)
    ac: freq = 25.12 kHz     (40 %), step = 287.5 Hz    (45.5 m%)
    ac: freq = 25.41 kHz     (40 %), step = 290.9 Hz    (45.5 m%)
    ac: freq = 25.7 kHz    (40.1 %), step = 294.2 Hz    (45.5 m%)
    ac: freq = 26 kHz      (40.1 %), step = 297.6 Hz    (45.5 m%)
    ac: freq = 26.3 kHz    (40.2 %), step = 301.1 Hz    (45.5 m%)
    ac: freq = 26.61 kHz   (40.2 %), step = 304.6 Hz    (45.5 m%)
    ac: freq = 26.92 kHz   (40.3 %), step = 308.1 Hz    (45.5 m%)
    ac: freq = 27.23 kHz   (40.3 %), step = 311.7 Hz    (45.5 m%)
    ac: freq = 27.54 kHz   (40.4 %), step = 315.3 Hz    (45.5 m%)
    ac: freq = 27.86 kHz   (40.4 %), step = 318.9 Hz    (45.5 m%)
    ac: freq = 28.18 kHz   (40.5 %), step = 322.6 Hz    (45.5 m%)
    ac: freq = 28.51 kHz   (40.5 %), step = 326.4 Hz    (45.5 m%)
    ac: freq = 28.84 kHz   (40.5 %), step = 330.1 Hz    (45.5 m%)
    ac: freq = 29.17 kHz   (40.6 %), step = 334 Hz      (45.5 m%)
    ac: freq = 29.51 kHz   (40.6 %), step = 337.8 Hz    (45.5 m%)
    ac: freq = 29.85 kHz   (40.7 %), step = 341.7 Hz    (45.5 m%)
    ac: freq = 30.2 kHz    (40.7 %), step = 345.7 Hz    (45.5 m%)
    ac: freq = 30.55 kHz   (40.8 %), step = 349.7 Hz    (45.5 m%)
    ac: freq = 30.9 kHz    (40.8 %), step = 353.7 Hz    (45.5 m%)
    ac: freq = 31.26 kHz   (40.9 %), step = 357.8 Hz    (45.5 m%)
    ac: freq = 31.62 kHz   (40.9 %), step = 362 Hz      (45.5 m%)
    ac: freq = 31.99 kHz     (41 %), step = 366.2 Hz    (45.5 m%)
    ac: freq = 32.36 kHz     (41 %), step = 370.4 Hz    (45.5 m%)
    ac: freq = 32.73 kHz     (41 %), step = 374.7 Hz    (45.5 m%)
    ac: freq = 33.11 kHz   (41.1 %), step = 379 Hz      (45.5 m%)
    ac: freq = 33.5 kHz    (41.1 %), step = 383.4 Hz    (45.5 m%)
    ac: freq = 33.88 kHz   (41.2 %), step = 387.9 Hz    (45.5 m%)
    ac: freq = 34.28 kHz   (41.2 %), step = 392.4 Hz    (45.5 m%)
    ac: freq = 34.67 kHz   (41.3 %), step = 396.9 Hz    (45.5 m%)
    ac: freq = 35.08 kHz   (41.3 %), step = 401.5 Hz    (45.5 m%)
    ac: freq = 35.48 kHz   (41.4 %), step = 406.2 Hz    (45.5 m%)
    ac: freq = 35.89 kHz   (41.4 %), step = 410.9 Hz    (45.5 m%)
    ac: freq = 36.31 kHz   (41.5 %), step = 415.6 Hz    (45.5 m%)
    ac: freq = 36.73 kHz   (41.5 %), step = 420.4 Hz    (45.5 m%)
    ac: freq = 37.15 kHz   (41.5 %), step = 425.3 Hz    (45.5 m%)
    ac: freq = 37.58 kHz   (41.6 %), step = 430.2 Hz    (45.5 m%)
    ac: freq = 38.02 kHz   (41.6 %), step = 435.2 Hz    (45.5 m%)
    ac: freq = 38.46 kHz   (41.7 %), step = 440.2 Hz    (45.5 m%)
    ac: freq = 38.9 kHz    (41.7 %), step = 445.3 Hz    (45.5 m%)
    ac: freq = 39.36 kHz   (41.8 %), step = 450.5 Hz    (45.5 m%)
    ac: freq = 39.81 kHz   (41.8 %), step = 455.7 Hz    (45.5 m%)
    ac: freq = 40.27 kHz   (41.9 %), step = 461 Hz      (45.5 m%)
    ac: freq = 40.74 kHz   (41.9 %), step = 466.3 Hz    (45.5 m%)
    ac: freq = 41.21 kHz     (42 %), step = 471.7 Hz    (45.5 m%)
    ac: freq = 41.69 kHz     (42 %), step = 477.2 Hz    (45.5 m%)
    ac: freq = 42.17 kHz     (42 %), step = 482.7 Hz    (45.5 m%)
    ac: freq = 42.66 kHz   (42.1 %), step = 488.3 Hz    (45.5 m%)
    ac: freq = 43.15 kHz   (42.1 %), step = 494 Hz      (45.5 m%)
    ac: freq = 43.65 kHz   (42.2 %), step = 499.7 Hz    (45.5 m%)
    ac: freq = 44.16 kHz   (42.2 %), step = 505.5 Hz    (45.5 m%)
    ac: freq = 44.67 kHz   (42.3 %), step = 511.3 Hz    (45.5 m%)
    ac: freq = 45.19 kHz   (42.3 %), step = 517.2 Hz    (45.5 m%)
    ac: freq = 45.71 kHz   (42.4 %), step = 523.2 Hz    (45.5 m%)
    ac: freq = 46.24 kHz   (42.4 %), step = 529.3 Hz    (45.5 m%)
    ac: freq = 46.77 kHz   (42.5 %), step = 535.4 Hz    (45.5 m%)
    ac: freq = 47.32 kHz   (42.5 %), step = 541.6 Hz    (45.5 m%)
    ac: freq = 47.86 kHz   (42.5 %), step = 547.9 Hz    (45.5 m%)
    ac: freq = 48.42 kHz   (42.6 %), step = 554.2 Hz    (45.5 m%)
    ac: freq = 48.98 kHz   (42.6 %), step = 560.6 Hz    (45.5 m%)
    ac: freq = 49.55 kHz   (42.7 %), step = 567.1 Hz    (45.5 m%)
    ac: freq = 50.12 kHz   (42.7 %), step = 573.7 Hz    (45.5 m%)
    ac: freq = 50.7 kHz    (42.8 %), step = 580.3 Hz    (45.5 m%)
    ac: freq = 51.29 kHz   (42.8 %), step = 587.1 Hz    (45.5 m%)
    ac: freq = 51.88 kHz   (42.9 %), step = 593.9 Hz    (45.5 m%)
    ac: freq = 52.48 kHz   (42.9 %), step = 600.7 Hz    (45.5 m%)
    ac: freq = 53.09 kHz     (43 %), step = 607.7 Hz    (45.5 m%)
    ac: freq = 53.7 kHz      (43 %), step = 614.7 Hz    (45.5 m%)
    ac: freq = 54.33 kHz     (43 %), step = 621.9 Hz    (45.5 m%)
    ac: freq = 54.95 kHz   (43.1 %), step = 629.1 Hz    (45.5 m%)
    ac: freq = 55.59 kHz   (43.1 %), step = 636.3 Hz    (45.5 m%)
    ac: freq = 56.23 kHz   (43.2 %), step = 643.7 Hz    (45.5 m%)
    ac: freq = 56.89 kHz   (43.2 %), step = 651.2 Hz    (45.5 m%)
    ac: freq = 57.54 kHz   (43.3 %), step = 658.7 Hz    (45.5 m%)
    ac: freq = 58.21 kHz   (43.3 %), step = 666.3 Hz    (45.5 m%)
    ac: freq = 58.88 kHz   (43.4 %), step = 674 Hz      (45.5 m%)
    ac: freq = 59.57 kHz   (43.4 %), step = 681.8 Hz    (45.5 m%)
    ac: freq = 60.26 kHz   (43.5 %), step = 689.7 Hz    (45.5 m%)
    ac: freq = 60.95 kHz   (43.5 %), step = 697.7 Hz    (45.5 m%)
    ac: freq = 61.66 kHz   (43.5 %), step = 705.8 Hz    (45.5 m%)
    ac: freq = 62.37 kHz   (43.6 %), step = 714 Hz      (45.5 m%)
    ac: freq = 63.1 kHz    (43.6 %), step = 722.3 Hz    (45.5 m%)
    ac: freq = 63.83 kHz   (43.7 %), step = 730.6 Hz    (45.5 m%)
    ac: freq = 64.57 kHz   (43.7 %), step = 739.1 Hz    (45.5 m%)
    ac: freq = 65.31 kHz   (43.8 %), step = 747.6 Hz    (45.5 m%)
    ac: freq = 66.07 kHz   (43.8 %), step = 756.3 Hz    (45.5 m%)
    ac: freq = 66.83 kHz   (43.9 %), step = 765 Hz      (45.5 m%)
    ac: freq = 67.61 kHz   (43.9 %), step = 773.9 Hz    (45.5 m%)
    ac: freq = 68.39 kHz     (44 %), step = 782.9 Hz    (45.5 m%)
    ac: freq = 69.18 kHz     (44 %), step = 791.9 Hz    (45.5 m%)
    ac: freq = 69.98 kHz     (44 %), step = 801.1 Hz    (45.5 m%)
    ac: freq = 70.79 kHz   (44.1 %), step = 810.4 Hz    (45.5 m%)
    ac: freq = 71.61 kHz   (44.1 %), step = 819.8 Hz    (45.5 m%)
    ac: freq = 72.44 kHz   (44.2 %), step = 829.3 Hz    (45.5 m%)
    ac: freq = 73.28 kHz   (44.2 %), step = 838.9 Hz    (45.5 m%)
    ac: freq = 74.13 kHz   (44.3 %), step = 848.6 Hz    (45.5 m%)
    ac: freq = 74.99 kHz   (44.3 %), step = 858.4 Hz    (45.5 m%)
    ac: freq = 75.86 kHz   (44.4 %), step = 868.3 Hz    (45.5 m%)
    ac: freq = 76.74 kHz   (44.4 %), step = 878.4 Hz    (45.5 m%)
    ac: freq = 77.62 kHz   (44.5 %), step = 888.6 Hz    (45.5 m%)
    ac: freq = 78.52 kHz   (44.5 %), step = 898.9 Hz    (45.5 m%)
    ac: freq = 79.43 kHz   (44.5 %), step = 909.3 Hz    (45.5 m%)
    ac: freq = 80.35 kHz   (44.6 %), step = 919.8 Hz    (45.5 m%)
    ac: freq = 81.28 kHz   (44.6 %), step = 930.4 Hz    (45.5 m%)
    ac: freq = 82.22 kHz   (44.7 %), step = 941.2 Hz    (45.5 m%)
    ac: freq = 83.18 kHz   (44.7 %), step = 952.1 Hz    (45.5 m%)
    ac: freq = 84.14 kHz   (44.8 %), step = 963.1 Hz    (45.5 m%)
    ac: freq = 85.11 kHz   (44.8 %), step = 974.3 Hz    (45.5 m%)
    ac: freq = 86.1 kHz    (44.9 %), step = 985.6 Hz    (45.5 m%)
    ac: freq = 87.1 kHz    (44.9 %), step = 997 Hz      (45.5 m%)
    ac: freq = 88.1 kHz      (45 %), step = 1.009 kHz   (45.5 m%)
    ac: freq = 89.13 kHz     (45 %), step = 1.02 kHz    (45.5 m%)
    ac: freq = 90.16 kHz     (45 %), step = 1.032 kHz   (45.5 m%)
    ac: freq = 91.2 kHz    (45.1 %), step = 1.044 kHz   (45.5 m%)
    ac: freq = 92.26 kHz   (45.1 %), step = 1.056 kHz   (45.5 m%)
    ac: freq = 93.33 kHz   (45.2 %), step = 1.068 kHz   (45.5 m%)
    ac: freq = 94.41 kHz   (45.2 %), step = 1.081 kHz   (45.5 m%)
    ac: freq = 95.5 kHz    (45.3 %), step = 1.093 kHz   (45.5 m%)
    ac: freq = 96.61 kHz   (45.3 %), step = 1.106 kHz   (45.5 m%)
    ac: freq = 97.72 kHz   (45.4 %), step = 1.119 kHz   (45.5 m%)
    ac: freq = 98.86 kHz   (45.4 %), step = 1.132 kHz   (45.5 m%)
    ac: freq = 100 kHz     (45.5 %), step = 1.145 kHz   (45.5 m%)
    ac: freq = 101.2 kHz   (45.5 %), step = 1.158 kHz   (45.5 m%)
    ac: freq = 102.3 kHz   (45.5 %), step = 1.171 kHz   (45.5 m%)
    ac: freq = 103.5 kHz   (45.6 %), step = 1.185 kHz   (45.5 m%)
    ac: freq = 104.7 kHz   (45.6 %), step = 1.199 kHz   (45.5 m%)
    ac: freq = 105.9 kHz   (45.7 %), step = 1.213 kHz   (45.5 m%)
    ac: freq = 107.2 kHz   (45.7 %), step = 1.227 kHz   (45.5 m%)
    ac: freq = 108.4 kHz   (45.8 %), step = 1.241 kHz   (45.5 m%)
    ac: freq = 109.6 kHz   (45.8 %), step = 1.255 kHz   (45.5 m%)
    ac: freq = 110.9 kHz   (45.9 %), step = 1.27 kHz    (45.5 m%)
    ac: freq = 112.2 kHz   (45.9 %), step = 1.284 kHz   (45.5 m%)
    ac: freq = 113.5 kHz     (46 %), step = 1.299 kHz   (45.5 m%)
    ac: freq = 114.8 kHz     (46 %), step = 1.314 kHz   (45.5 m%)
    ac: freq = 116.1 kHz     (46 %), step = 1.329 kHz   (45.5 m%)
    ac: freq = 117.5 kHz   (46.1 %), step = 1.345 kHz   (45.5 m%)
    ac: freq = 118.9 kHz   (46.1 %), step = 1.36 kHz    (45.5 m%)
    ac: freq = 120.2 kHz   (46.2 %), step = 1.376 kHz   (45.5 m%)
    ac: freq = 121.6 kHz   (46.2 %), step = 1.392 kHz   (45.5 m%)
    ac: freq = 123 kHz     (46.3 %), step = 1.408 kHz   (45.5 m%)
    ac: freq = 124.5 kHz   (46.3 %), step = 1.425 kHz   (45.5 m%)
    ac: freq = 125.9 kHz   (46.4 %), step = 1.441 kHz   (45.5 m%)
    ac: freq = 127.4 kHz   (46.4 %), step = 1.458 kHz   (45.5 m%)
    ac: freq = 128.8 kHz   (46.5 %), step = 1.475 kHz   (45.5 m%)
    ac: freq = 130.3 kHz   (46.5 %), step = 1.492 kHz   (45.5 m%)
    ac: freq = 131.8 kHz   (46.5 %), step = 1.509 kHz   (45.5 m%)
    ac: freq = 133.4 kHz   (46.6 %), step = 1.526 kHz   (45.5 m%)
    ac: freq = 134.9 kHz   (46.6 %), step = 1.544 kHz   (45.5 m%)
    ac: freq = 136.5 kHz   (46.7 %), step = 1.562 kHz   (45.5 m%)
    ac: freq = 138 kHz     (46.7 %), step = 1.58 kHz    (45.5 m%)
    ac: freq = 139.6 kHz   (46.8 %), step = 1.598 kHz   (45.5 m%)
    ac: freq = 141.3 kHz   (46.8 %), step = 1.617 kHz   (45.5 m%)
    ac: freq = 142.9 kHz   (46.9 %), step = 1.636 kHz   (45.5 m%)
    ac: freq = 144.5 kHz   (46.9 %), step = 1.655 kHz   (45.5 m%)
    ac: freq = 146.2 kHz     (47 %), step = 1.674 kHz   (45.5 m%)
    ac: freq = 147.9 kHz     (47 %), step = 1.693 kHz   (45.5 m%)
    ac: freq = 149.6 kHz     (47 %), step = 1.713 kHz   (45.5 m%)
    ac: freq = 151.4 kHz   (47.1 %), step = 1.733 kHz   (45.5 m%)
    ac: freq = 153.1 kHz   (47.1 %), step = 1.753 kHz   (45.5 m%)
    ac: freq = 154.9 kHz   (47.2 %), step = 1.773 kHz   (45.5 m%)
    ac: freq = 156.7 kHz   (47.2 %), step = 1.793 kHz   (45.5 m%)
    ac: freq = 158.5 kHz   (47.3 %), step = 1.814 kHz   (45.5 m%)
    ac: freq = 160.3 kHz   (47.3 %), step = 1.835 kHz   (45.5 m%)
    ac: freq = 162.2 kHz   (47.4 %), step = 1.856 kHz   (45.5 m%)
    ac: freq = 164.1 kHz   (47.4 %), step = 1.878 kHz   (45.5 m%)
    ac: freq = 166 kHz     (47.5 %), step = 1.9 kHz     (45.5 m%)
    ac: freq = 167.9 kHz   (47.5 %), step = 1.922 kHz   (45.5 m%)
    ac: freq = 169.8 kHz   (47.5 %), step = 1.944 kHz   (45.5 m%)
    ac: freq = 171.8 kHz   (47.6 %), step = 1.966 kHz   (45.5 m%)
    ac: freq = 173.8 kHz   (47.6 %), step = 1.989 kHz   (45.5 m%)
    ac: freq = 175.8 kHz   (47.7 %), step = 2.012 kHz   (45.5 m%)
    ac: freq = 177.8 kHz   (47.7 %), step = 2.036 kHz   (45.5 m%)
    ac: freq = 179.9 kHz   (47.8 %), step = 2.059 kHz   (45.5 m%)
    ac: freq = 182 kHz     (47.8 %), step = 2.083 kHz   (45.5 m%)
    ac: freq = 184.1 kHz   (47.9 %), step = 2.107 kHz   (45.5 m%)
    ac: freq = 186.2 kHz   (47.9 %), step = 2.132 kHz   (45.5 m%)
    ac: freq = 188.4 kHz     (48 %), step = 2.156 kHz   (45.5 m%)
    ac: freq = 190.5 kHz     (48 %), step = 2.181 kHz   (45.5 m%)
    ac: freq = 192.8 kHz     (48 %), step = 2.206 kHz   (45.5 m%)
    ac: freq = 195 kHz     (48.1 %), step = 2.232 kHz   (45.5 m%)
    ac: freq = 197.2 kHz   (48.1 %), step = 2.258 kHz   (45.5 m%)
    ac: freq = 199.5 kHz   (48.2 %), step = 2.284 kHz   (45.5 m%)
    ac: freq = 201.8 kHz   (48.2 %), step = 2.31 kHz    (45.5 m%)
    ac: freq = 204.2 kHz   (48.3 %), step = 2.337 kHz   (45.5 m%)
    ac: freq = 206.5 kHz   (48.3 %), step = 2.364 kHz   (45.5 m%)
    ac: freq = 208.9 kHz   (48.4 %), step = 2.392 kHz   (45.5 m%)
    ac: freq = 211.3 kHz   (48.4 %), step = 2.419 kHz   (45.5 m%)
    ac: freq = 213.8 kHz   (48.5 %), step = 2.447 kHz   (45.5 m%)
    ac: freq = 216.3 kHz   (48.5 %), step = 2.476 kHz   (45.5 m%)
    ac: freq = 218.8 kHz   (48.5 %), step = 2.504 kHz   (45.5 m%)
    ac: freq = 221.3 kHz   (48.6 %), step = 2.533 kHz   (45.5 m%)
    ac: freq = 223.9 kHz   (48.6 %), step = 2.563 kHz   (45.5 m%)
    ac: freq = 226.5 kHz   (48.7 %), step = 2.592 kHz   (45.5 m%)
    ac: freq = 229.1 kHz   (48.7 %), step = 2.622 kHz   (45.5 m%)
    ac: freq = 231.7 kHz   (48.8 %), step = 2.653 kHz   (45.5 m%)
    ac: freq = 234.4 kHz   (48.8 %), step = 2.683 kHz   (45.5 m%)
    ac: freq = 237.1 kHz   (48.9 %), step = 2.714 kHz   (45.5 m%)
    ac: freq = 239.9 kHz   (48.9 %), step = 2.746 kHz   (45.5 m%)
    ac: freq = 242.7 kHz     (49 %), step = 2.778 kHz   (45.5 m%)
    ac: freq = 245.5 kHz     (49 %), step = 2.81 kHz    (45.5 m%)
    ac: freq = 248.3 kHz     (49 %), step = 2.842 kHz   (45.5 m%)
    ac: freq = 251.2 kHz   (49.1 %), step = 2.875 kHz   (45.5 m%)
    ac: freq = 254.1 kHz   (49.1 %), step = 2.909 kHz   (45.5 m%)
    ac: freq = 257 kHz     (49.2 %), step = 2.942 kHz   (45.5 m%)
    ac: freq = 260 kHz     (49.2 %), step = 2.976 kHz   (45.5 m%)
    ac: freq = 263 kHz     (49.3 %), step = 3.011 kHz   (45.5 m%)
    ac: freq = 266.1 kHz   (49.3 %), step = 3.046 kHz   (45.5 m%)
    ac: freq = 269.2 kHz   (49.4 %), step = 3.081 kHz   (45.5 m%)
    ac: freq = 272.3 kHz   (49.4 %), step = 3.117 kHz   (45.5 m%)
    ac: freq = 275.4 kHz   (49.5 %), step = 3.153 kHz   (45.5 m%)
    ac: freq = 278.6 kHz   (49.5 %), step = 3.189 kHz   (45.5 m%)
    ac: freq = 281.8 kHz   (49.5 %), step = 3.226 kHz   (45.5 m%)
    ac: freq = 285.1 kHz   (49.6 %), step = 3.264 kHz   (45.5 m%)
    ac: freq = 288.4 kHz   (49.6 %), step = 3.301 kHz   (45.5 m%)
    ac: freq = 291.7 kHz   (49.7 %), step = 3.34 kHz    (45.5 m%)
    ac: freq = 295.1 kHz   (49.7 %), step = 3.378 kHz   (45.5 m%)
    ac: freq = 298.5 kHz   (49.8 %), step = 3.417 kHz   (45.5 m%)
    ac: freq = 302 kHz     (49.8 %), step = 3.457 kHz   (45.5 m%)
    ac: freq = 305.5 kHz   (49.9 %), step = 3.497 kHz   (45.5 m%)
    ac: freq = 309 kHz     (49.9 %), step = 3.537 kHz   (45.5 m%)
    ac: freq = 312.6 kHz     (50 %), step = 3.578 kHz   (45.5 m%)
    ac: freq = 316.2 kHz     (50 %), step = 3.62 kHz    (45.5 m%)
    ac: freq = 319.9 kHz     (50 %), step = 3.662 kHz   (45.5 m%)
    ac: freq = 323.6 kHz   (50.1 %), step = 3.704 kHz   (45.5 m%)
    ac: freq = 327.3 kHz   (50.1 %), step = 3.747 kHz   (45.5 m%)
    ac: freq = 331.1 kHz   (50.2 %), step = 3.79 kHz    (45.5 m%)
    ac: freq = 335 kHz     (50.2 %), step = 3.834 kHz   (45.5 m%)
    ac: freq = 338.8 kHz   (50.3 %), step = 3.879 kHz   (45.5 m%)
    ac: freq = 342.8 kHz   (50.3 %), step = 3.924 kHz   (45.5 m%)
    ac: freq = 346.7 kHz   (50.4 %), step = 3.969 kHz   (45.5 m%)
    ac: freq = 350.8 kHz   (50.4 %), step = 4.015 kHz   (45.5 m%)
    ac: freq = 354.8 kHz   (50.5 %), step = 4.062 kHz   (45.5 m%)
    ac: freq = 358.9 kHz   (50.5 %), step = 4.109 kHz   (45.5 m%)
    ac: freq = 363.1 kHz   (50.5 %), step = 4.156 kHz   (45.5 m%)
    ac: freq = 367.3 kHz   (50.6 %), step = 4.204 kHz   (45.5 m%)
    ac: freq = 371.5 kHz   (50.6 %), step = 4.253 kHz   (45.5 m%)
    ac: freq = 375.8 kHz   (50.7 %), step = 4.302 kHz   (45.5 m%)
    ac: freq = 380.2 kHz   (50.7 %), step = 4.352 kHz   (45.5 m%)
    ac: freq = 384.6 kHz   (50.8 %), step = 4.402 kHz   (45.5 m%)
    ac: freq = 389 kHz     (50.8 %), step = 4.453 kHz   (45.5 m%)
    ac: freq = 393.6 kHz   (50.9 %), step = 4.505 kHz   (45.5 m%)
    ac: freq = 398.1 kHz   (50.9 %), step = 4.557 kHz   (45.5 m%)
    ac: freq = 402.7 kHz     (51 %), step = 4.61 kHz    (45.5 m%)
    ac: freq = 407.4 kHz     (51 %), step = 4.663 kHz   (45.5 m%)
    ac: freq = 412.1 kHz     (51 %), step = 4.717 kHz   (45.5 m%)
    ac: freq = 416.9 kHz   (51.1 %), step = 4.772 kHz   (45.5 m%)
    ac: freq = 421.7 kHz   (51.1 %), step = 4.827 kHz   (45.5 m%)
    ac: freq = 426.6 kHz   (51.2 %), step = 4.883 kHz   (45.5 m%)
    ac: freq = 431.5 kHz   (51.2 %), step = 4.94 kHz    (45.5 m%)
    ac: freq = 436.5 kHz   (51.3 %), step = 4.997 kHz   (45.5 m%)
    ac: freq = 441.6 kHz   (51.3 %), step = 5.055 kHz   (45.5 m%)
    ac: freq = 446.7 kHz   (51.4 %), step = 5.113 kHz   (45.5 m%)
    ac: freq = 451.9 kHz   (51.4 %), step = 5.172 kHz   (45.5 m%)
    ac: freq = 457.1 kHz   (51.5 %), step = 5.232 kHz   (45.5 m%)
    ac: freq = 462.4 kHz   (51.5 %), step = 5.293 kHz   (45.5 m%)
    ac: freq = 467.7 kHz   (51.5 %), step = 5.354 kHz   (45.5 m%)
    ac: freq = 473.2 kHz   (51.6 %), step = 5.416 kHz   (45.5 m%)
    ac: freq = 478.6 kHz   (51.6 %), step = 5.479 kHz   (45.5 m%)
    ac: freq = 484.2 kHz   (51.7 %), step = 5.542 kHz   (45.5 m%)
    ac: freq = 489.8 kHz   (51.7 %), step = 5.606 kHz   (45.5 m%)
    ac: freq = 495.5 kHz   (51.8 %), step = 5.671 kHz   (45.5 m%)
    ac: freq = 501.2 kHz   (51.8 %), step = 5.737 kHz   (45.5 m%)
    ac: freq = 507 kHz     (51.9 %), step = 5.803 kHz   (45.5 m%)
    ac: freq = 512.9 kHz   (51.9 %), step = 5.871 kHz   (45.5 m%)
    ac: freq = 518.8 kHz     (52 %), step = 5.939 kHz   (45.5 m%)
    ac: freq = 524.8 kHz     (52 %), step = 6.007 kHz   (45.5 m%)
    ac: freq = 530.9 kHz     (52 %), step = 6.077 kHz   (45.5 m%)
    ac: freq = 537 kHz     (52.1 %), step = 6.147 kHz   (45.5 m%)
    ac: freq = 543.3 kHz   (52.1 %), step = 6.219 kHz   (45.5 m%)
    ac: freq = 549.5 kHz   (52.2 %), step = 6.291 kHz   (45.5 m%)
    ac: freq = 555.9 kHz   (52.2 %), step = 6.363 kHz   (45.5 m%)
    ac: freq = 562.3 kHz   (52.3 %), step = 6.437 kHz   (45.5 m%)
    ac: freq = 568.9 kHz   (52.3 %), step = 6.512 kHz   (45.5 m%)
    ac: freq = 575.4 kHz   (52.4 %), step = 6.587 kHz   (45.5 m%)
    ac: freq = 582.1 kHz   (52.4 %), step = 6.663 kHz   (45.5 m%)
    ac: freq = 588.8 kHz   (52.5 %), step = 6.74 kHz    (45.5 m%)
    ac: freq = 595.7 kHz   (52.5 %), step = 6.818 kHz   (45.5 m%)
    ac: freq = 602.6 kHz   (52.5 %), step = 6.897 kHz   (45.5 m%)
    ac: freq = 609.5 kHz   (52.6 %), step = 6.977 kHz   (45.5 m%)
    ac: freq = 616.6 kHz   (52.6 %), step = 7.058 kHz   (45.5 m%)
    ac: freq = 623.7 kHz   (52.7 %), step = 7.14 kHz    (45.5 m%)
    ac: freq = 631 kHz     (52.7 %), step = 7.223 kHz   (45.5 m%)
    ac: freq = 638.3 kHz   (52.8 %), step = 7.306 kHz   (45.5 m%)
    ac: freq = 645.7 kHz   (52.8 %), step = 7.391 kHz   (45.5 m%)
    ac: freq = 653.1 kHz   (52.9 %), step = 7.476 kHz   (45.5 m%)
    ac: freq = 660.7 kHz   (52.9 %), step = 7.563 kHz   (45.5 m%)
    ac: freq = 668.3 kHz     (53 %), step = 7.65 kHz    (45.5 m%)
    ac: freq = 676.1 kHz     (53 %), step = 7.739 kHz   (45.5 m%)
    ac: freq = 683.9 kHz     (53 %), step = 7.829 kHz   (45.5 m%)
    ac: freq = 691.8 kHz   (53.1 %), step = 7.919 kHz   (45.5 m%)
    ac: freq = 699.8 kHz   (53.1 %), step = 8.011 kHz   (45.5 m%)
    ac: freq = 707.9 kHz   (53.2 %), step = 8.104 kHz   (45.5 m%)
    ac: freq = 716.1 kHz   (53.2 %), step = 8.198 kHz   (45.5 m%)
    ac: freq = 724.4 kHz   (53.3 %), step = 8.293 kHz   (45.5 m%)
    ac: freq = 732.8 kHz   (53.3 %), step = 8.389 kHz   (45.5 m%)
    ac: freq = 741.3 kHz   (53.4 %), step = 8.486 kHz   (45.5 m%)
    ac: freq = 749.9 kHz   (53.4 %), step = 8.584 kHz   (45.5 m%)
    ac: freq = 758.6 kHz   (53.5 %), step = 8.683 kHz   (45.5 m%)
    ac: freq = 767.4 kHz   (53.5 %), step = 8.784 kHz   (45.5 m%)
    ac: freq = 776.2 kHz   (53.5 %), step = 8.886 kHz   (45.5 m%)
    ac: freq = 785.2 kHz   (53.6 %), step = 8.989 kHz   (45.5 m%)
    ac: freq = 794.3 kHz   (53.6 %), step = 9.093 kHz   (45.5 m%)
    ac: freq = 803.5 kHz   (53.7 %), step = 9.198 kHz   (45.5 m%)
[...]
    stb: freq = 7.762 MHz     (71 %), step = 176.7 kHz    (103 m%)
    stb: freq = 7.943 MHz   (71.1 %), step = 180.8 kHz    (103 m%)
    stb: freq = 8.128 MHz   (71.2 %), step = 185 kHz      (103 m%)
    stb: freq = 8.318 MHz   (71.3 %), step = 189.3 kHz    (103 m%)
    stb: freq = 8.511 MHz   (71.4 %), step = 193.7 kHz    (103 m%)
    stb: freq = 8.71 MHz    (71.5 %), step = 198.3 kHz    (103 m%)
    stb: freq = 8.913 MHz   (71.6 %), step = 202.9 kHz    (103 m%)
    stb: freq = 9.12 MHz    (71.8 %), step = 207.6 kHz    (103 m%)
    stb: freq = 9.333 MHz   (71.9 %), step = 212.4 kHz    (103 m%)
    stb: freq = 9.55 MHz      (72 %), step = 217.4 kHz    (103 m%)
    stb: freq = 9.772 MHz   (72.1 %), step = 222.4 kHz    (103 m%)
    stb: freq = 10 MHz      (72.2 %), step = 227.6 kHz    (103 m%)
    stb: freq = 10.23 MHz   (72.3 %), step = 232.9 kHz    (103 m%)
    stb: freq = 10.47 MHz   (72.4 %), step = 238.4 kHz    (103 m%)
    stb: freq = 10.72 MHz   (72.5 %), step = 243.9 kHz    (103 m%)
    stb: freq = 10.96 MHz   (72.6 %), step = 249.6 kHz    (103 m%)
    stb: freq = 11.22 MHz   (72.7 %), step = 255.4 kHz    (103 m%)
    stb: freq = 11.48 MHz   (72.8 %), step = 261.4 kHz    (103 m%)
    stb: freq = 11.75 MHz   (72.9 %), step = 267.4 kHz    (103 m%)
    stb: freq = 12.02 MHz     (73 %), step = 273.7 kHz    (103 m%)
    stb: freq = 12.3 MHz    (73.1 %), step = 280 kHz      (103 m%)
    stb: freq = 12.59 MHz   (73.2 %), step = 286.6 kHz    (103 m%)
    stb: freq = 12.88 MHz   (73.3 %), step = 293.2 kHz    (103 m%)
    stb: freq = 13.18 MHz   (73.4 %), step = 300.1 kHz    (103 m%)
    stb: freq = 13.49 MHz   (73.5 %), step = 307.1 kHz    (103 m%)
    stb: freq = 13.8 MHz    (73.6 %), step = 314.2 kHz    (103 m%)
    stb: freq = 14.13 MHz   (73.7 %), step = 321.5 kHz    (103 m%)
    stb: freq = 14.45 MHz   (73.8 %), step = 329 kHz      (103 m%)
    stb: freq = 14.79 MHz   (73.9 %), step = 336.7 kHz    (103 m%)
    stb: freq = 15.14 MHz     (74 %), step = 344.5 kHz    (103 m%)
    stb: freq = 15.49 MHz   (74.1 %), step = 352.6 kHz    (103 m%)
    stb: freq = 15.85 MHz   (74.2 %), step = 360.8 kHz    (103 m%)
    stb: freq = 16.22 MHz   (74.3 %), step = 369.2 kHz    (103 m%)
    stb: freq = 16.6 MHz    (74.4 %), step = 377.8 kHz    (103 m%)
    stb: freq = 16.98 MHz   (74.5 %), step = 386.6 kHz    (103 m%)
    stb: freq = 17.38 MHz   (74.6 %), step = 395.6 kHz    (103 m%)
    stb: freq = 17.78 MHz   (74.7 %), step = 404.8 kHz    (103 m%)
    stb: freq = 18.2 MHz    (74.8 %), step = 414.2 kHz    (103 m%)
    stb: freq = 18.62 MHz   (74.9 %), step = 423.9 kHz    (103 m%)
    stb: freq = 19.05 MHz   (75.1 %), step = 433.7 kHz    (103 m%)
    stb: freq = 19.5 MHz    (75.2 %), step = 443.8 kHz    (103 m%)
    stb: freq = 19.95 MHz   (75.3 %), step = 454.2 kHz    (103 m%)
    stb: freq = 20.42 MHz   (75.4 %), step = 464.8 kHz    (103 m%)
    stb: freq = 20.89 MHz   (75.5 %), step = 475.6 kHz    (103 m%)
    stb: freq = 21.38 MHz   (75.6 %), step = 486.7 kHz    (103 m%)
    stb: freq = 21.88 MHz   (75.7 %), step = 498 kHz      (103 m%)
    stb: freq = 22.39 MHz   (75.8 %), step = 509.6 kHz    (103 m%)
    stb: freq = 22.91 MHz   (75.9 %), step = 521.5 kHz    (103 m%)
    stb: freq = 23.44 MHz     (76 %), step = 533.6 kHz    (103 m%)
    stb: freq = 23.99 MHz   (76.1 %), step = 546 kHz      (103 m%)
    stb: freq = 24.55 MHz   (76.2 %), step = 558.8 kHz    (103 m%)
    stb: freq = 25.12 MHz   (76.3 %), step = 571.8 kHz    (103 m%)
    stb: freq = 25.7 MHz    (76.4 %), step = 585.1 kHz    (103 m%)
    stb: freq = 26.3 MHz    (76.5 %), step = 598.7 kHz    (103 m%)
    stb: freq = 26.92 MHz   (76.6 %), step = 612.7 kHz    (103 m%)
    stb: freq = 27.54 MHz   (76.7 %), step = 626.9 kHz    (103 m%)
    stb: freq = 28.18 MHz   (76.8 %), step = 641.5 kHz    (103 m%)
    stb: freq = 28.84 MHz   (76.9 %), step = 656.5 kHz    (103 m%)
    stb: freq = 29.51 MHz     (77 %), step = 671.8 kHz    (103 m%)
    stb: freq = 30.2 MHz    (77.1 %), step = 687.4 kHz    (103 m%)
    stb: freq = 30.9 MHz    (77.2 %), step = 703.4 kHz    (103 m%)
    stb: freq = 31.62 MHz   (77.3 %), step = 719.8 kHz    (103 m%)
    stb: freq = 32.36 MHz   (77.4 %), step = 736.6 kHz    (103 m%)
    stb: freq = 33.11 MHz   (77.5 %), step = 753.7 kHz    (103 m%)
    stb: freq = 33.88 MHz   (77.6 %), step = 771.3 kHz    (103 m%)
    stb: freq = 34.67 MHz   (77.7 %), step = 789.3 kHz    (103 m%)
    stb: freq = 35.48 MHz   (77.8 %), step = 807.7 kHz    (103 m%)
    stb: freq = 36.31 MHz   (77.9 %), step = 826.5 kHz    (103 m%)
    stb: freq = 37.15 MHz     (78 %), step = 845.7 kHz    (103 m%)
    stb: freq = 38.02 MHz   (78.1 %), step = 865.4 kHz    (103 m%)
    stb: freq = 38.9 MHz    (78.2 %), step = 885.6 kHz    (103 m%)
    stb: freq = 39.81 MHz   (78.4 %), step = 906.2 kHz    (103 m%)
    stb: freq = 40.74 MHz   (78.5 %), step = 927.3 kHz    (103 m%)
    stb: freq = 41.69 MHz   (78.6 %), step = 948.9 kHz    (103 m%)
    stb: freq = 42.66 MHz   (78.7 %), step = 971 kHz      (103 m%)
    stb: freq = 43.65 MHz   (78.8 %), step = 993.6 kHz    (103 m%)
    stb: freq = 44.67 MHz   (78.9 %), step = 1.017 MHz    (103 m%)
    stb: freq = 45.71 MHz     (79 %), step = 1.04 MHz     (103 m%)
    stb: freq = 46.77 MHz   (79.1 %), step = 1.065 MHz    (103 m%)
    stb: freq = 47.86 MHz   (79.2 %), step = 1.089 MHz    (103 m%)
    stb: freq = 48.98 MHz   (79.3 %), step = 1.115 MHz    (103 m%)
    stb: freq = 50.12 MHz   (79.4 %), step = 1.141 MHz    (103 m%)
    stb: freq = 51.29 MHz   (79.5 %), step = 1.167 MHz    (103 m%)
    stb: freq = 52.48 MHz   (79.6 %), step = 1.195 MHz    (103 m%)
    stb: freq = 53.7 MHz    (79.7 %), step = 1.222 MHz    (103 m%)
    stb: freq = 54.95 MHz   (79.8 %), step = 1.251 MHz    (103 m%)
    stb: freq = 56.23 MHz   (79.9 %), step = 1.28 MHz     (103 m%)
    stb: freq = 57.54 MHz     (80 %), step = 1.31 MHz     (103 m%)
    stb: freq = 58.88 MHz   (80.1 %), step = 1.34 MHz     (103 m%)
    stb: freq = 60.26 MHz   (80.2 %), step = 1.372 MHz    (103 m%)
    stb: freq = 61.66 MHz   (80.3 %), step = 1.404 MHz    (103 m%)
    stb: freq = 63.1 MHz    (80.4 %), step = 1.436 MHz    (103 m%)
    stb: freq = 64.57 MHz   (80.5 %), step = 1.47 MHz     (103 m%)
    stb: freq = 66.07 MHz   (80.6 %), step = 1.504 MHz    (103 m%)
    stb: freq = 67.61 MHz   (80.7 %), step = 1.539 MHz    (103 m%)
    stb: freq = 69.18 MHz   (80.8 %), step = 1.575 MHz    (103 m%)
    stb: freq = 70.79 MHz   (80.9 %), step = 1.611 MHz    (103 m%)
    stb: freq = 72.44 MHz     (81 %), step = 1.649 MHz    (103 m%)
    stb: freq = 74.13 MHz   (81.1 %), step = 1.687 MHz    (103 m%)
    stb: freq = 75.86 MHz   (81.2 %), step = 1.727 MHz    (103 m%)
    stb: freq = 77.62 MHz   (81.3 %), step = 1.767 MHz    (103 m%)
    stb: freq = 79.43 MHz   (81.4 %), step = 1.808 MHz    (103 m%)
    stb: freq = 81.28 MHz   (81.5 %), step = 1.85 MHz     (103 m%)
    stb: freq = 83.18 MHz   (81.6 %), step = 1.893 MHz    (103 m%)
    stb: freq = 85.11 MHz   (81.8 %), step = 1.937 MHz    (103 m%)
    stb: freq = 87.1 MHz    (81.9 %), step = 1.983 MHz    (103 m%)
    stb: freq = 89.13 MHz     (82 %), step = 2.029 MHz    (103 m%)
    stb: freq = 91.2 MHz    (82.1 %), step = 2.076 MHz    (103 m%)
    stb: freq = 93.33 MHz   (82.2 %), step = 2.124 MHz    (103 m%)
    stb: freq = 95.5 MHz    (82.3 %), step = 2.174 MHz    (103 m%)
    stb: freq = 97.72 MHz   (82.4 %), step = 2.224 MHz    (103 m%)
    stb: freq = 100 MHz     (82.5 %), step = 2.276 MHz    (103 m%)
    stb: freq = 102.3 MHz   (82.6 %), step = 2.329 MHz    (103 m%)
    stb: freq = 104.7 MHz   (82.7 %), step = 2.384 MHz    (103 m%)
    stb: freq = 107.2 MHz   (82.8 %), step = 2.439 MHz    (103 m%)
    stb: freq = 109.6 MHz   (82.9 %), step = 2.496 MHz    (103 m%)
    stb: freq = 112.2 MHz     (83 %), step = 2.554 MHz    (103 m%)
    stb: freq = 114.8 MHz   (83.1 %), step = 2.614 MHz    (103 m%)
    stb: freq = 117.5 MHz   (83.2 %), step = 2.674 MHz    (103 m%)
    stb: freq = 120.2 MHz   (83.3 %), step = 2.737 MHz    (103 m%)
    stb: freq = 123 MHz     (83.4 %), step = 2.8 MHz      (103 m%)
    stb: freq = 125.9 MHz   (83.5 %), step = 2.866 MHz    (103 m%)
    stb: freq = 128.8 MHz   (83.6 %), step = 2.932 MHz    (103 m%)
    stb: freq = 131.8 MHz   (83.7 %), step = 3.001 MHz    (103 m%)
    stb: freq = 134.9 MHz   (83.8 %), step = 3.071 MHz    (103 m%)
    stb: freq = 138 MHz     (83.9 %), step = 3.142 MHz    (103 m%)
    stb: freq = 141.3 MHz     (84 %), step = 3.215 MHz    (103 m%)
    stb: freq = 144.5 MHz   (84.1 %), step = 3.29 MHz     (103 m%)
    stb: freq = 147.9 MHz   (84.2 %), step = 3.367 MHz    (103 m%)
    stb: freq = 151.4 MHz   (84.3 %), step = 3.445 MHz    (103 m%)
    stb: freq = 154.9 MHz   (84.4 %), step = 3.526 MHz    (103 m%)
    stb: freq = 158.5 MHz   (84.5 %), step = 3.608 MHz    (103 m%)
    stb: freq = 162.2 MHz   (84.6 %), step = 3.692 MHz    (103 m%)
    stb: freq = 166 MHz     (84.7 %), step = 3.778 MHz    (103 m%)
    stb: freq = 169.8 MHz   (84.8 %), step = 3.866 MHz    (103 m%)
    stb: freq = 173.8 MHz   (84.9 %), step = 3.956 MHz    (103 m%)
    stb: freq = 177.8 MHz   (85.1 %), step = 4.048 MHz    (103 m%)
    stb: freq = 182 MHz     (85.2 %), step = 4.142 MHz    (103 m%)
    stb: freq = 186.2 MHz   (85.3 %), step = 4.239 MHz    (103 m%)
    stb: freq = 190.5 MHz   (85.4 %), step = 4.337 MHz    (103 m%)
    stb: freq = 195 MHz     (85.5 %), step = 4.438 MHz    (103 m%)
    stb: freq = 199.5 MHz   (85.6 %), step = 4.542 MHz    (103 m%)
    stb: freq = 204.2 MHz   (85.7 %), step = 4.648 MHz    (103 m%)
    stb: freq = 208.9 MHz   (85.8 %), step = 4.756 MHz    (103 m%)
    stb: freq = 213.8 MHz   (85.9 %), step = 4.867 MHz    (103 m%)
    stb: freq = 218.8 MHz     (86 %), step = 4.98 MHz     (103 m%)
    stb: freq = 223.9 MHz   (86.1 %), step = 5.096 MHz    (103 m%)
    stb: freq = 229.1 MHz   (86.2 %), step = 5.215 MHz    (103 m%)
    stb: freq = 234.4 MHz   (86.3 %), step = 5.336 MHz    (103 m%)
    stb: freq = 239.9 MHz   (86.4 %), step = 5.46 MHz     (103 m%)
    stb: freq = 245.5 MHz   (86.5 %), step = 5.588 MHz    (103 m%)
    stb: freq = 251.2 MHz   (86.6 %), step = 5.718 MHz    (103 m%)
    stb: freq = 257 MHz     (86.7 %), step = 5.851 MHz    (103 m%)
    stb: freq = 263 MHz     (86.8 %), step = 5.987 MHz    (103 m%)
    stb: freq = 269.2 MHz   (86.9 %), step = 6.127 MHz    (103 m%)
    stb: freq = 275.4 MHz     (87 %), step = 6.269 MHz    (103 m%)
    stb: freq = 281.8 MHz   (87.1 %), step = 6.415 MHz    (103 m%)
    stb: freq = 288.4 MHz   (87.2 %), step = 6.565 MHz    (103 m%)
    stb: freq = 295.1 MHz   (87.3 %), step = 6.718 MHz    (103 m%)
    stb: freq = 302 MHz     (87.4 %), step = 6.874 MHz    (103 m%)
    stb: freq = 309 MHz     (87.5 %), step = 7.034 MHz    (103 m%)
    stb: freq = 316.2 MHz   (87.6 %), step = 7.198 MHz    (103 m%)
    stb: freq = 323.6 MHz   (87.7 %), step = 7.366 MHz    (103 m%)
    stb: freq = 331.1 MHz   (87.8 %), step = 7.537 MHz    (103 m%)
    stb: freq = 338.8 MHz   (87.9 %), step = 7.713 MHz    (103 m%)
    stb: freq = 346.7 MHz     (88 %), step = 7.893 MHz    (103 m%)
    stb: freq = 354.8 MHz   (88.1 %), step = 8.077 MHz    (103 m%)
    stb: freq = 363.1 MHz   (88.2 %), step = 8.265 MHz    (103 m%)
    stb: freq = 371.5 MHz   (88.4 %), step = 8.457 MHz    (103 m%)
    stb: freq = 380.2 MHz   (88.5 %), step = 8.654 MHz    (103 m%)
    stb: freq = 389 MHz     (88.6 %), step = 8.856 MHz    (103 m%)
    stb: freq = 398.1 MHz   (88.7 %), step = 9.062 MHz    (103 m%)
    stb: freq = 407.4 MHz   (88.8 %), step = 9.273 MHz    (103 m%)
    stb: freq = 416.9 MHz   (88.9 %), step = 9.489 MHz    (103 m%)
    stb: freq = 426.6 MHz     (89 %), step = 9.71 MHz     (103 m%)
    stb: freq = 436.5 MHz   (89.1 %), step = 9.936 MHz    (103 m%)
    stb: freq = 446.7 MHz   (89.2 %), step = 10.17 MHz    (103 m%)
    stb: freq = 457.1 MHz   (89.3 %), step = 10.4 MHz     (103 m%)
    stb: freq = 467.7 MHz   (89.4 %), step = 10.65 MHz    (103 m%)
    stb: freq = 478.6 MHz   (89.5 %), step = 10.89 MHz    (103 m%)
    stb: freq = 489.8 MHz   (89.6 %), step = 11.15 MHz    (103 m%)
    stb: freq = 501.2 MHz   (89.7 %), step = 11.41 MHz    (103 m%)
    stb: freq = 512.9 MHz   (89.8 %), step = 11.67 MHz    (103 m%)
    stb: freq = 524.8 MHz   (89.9 %), step = 11.95 MHz    (103 m%)
    stb: freq = 537 MHz       (90 %), step = 12.22 MHz    (103 m%)
    stb: freq = 549.5 MHz   (90.1 %), step = 12.51 MHz    (103 m%)
    stb: freq = 562.3 MHz   (90.2 %), step = 12.8 MHz     (103 m%)
    stb: freq = 575.4 MHz   (90.3 %), step = 13.1 MHz     (103 m%)
    stb: freq = 588.8 MHz   (90.4 %), step = 13.4 MHz     (103 m%)
    stb: freq = 602.6 MHz   (90.5 %), step = 13.72 MHz    (103 m%)
    stb: freq = 616.6 MHz   (90.6 %), step = 14.04 MHz    (103 m%)
    stb: freq = 631 MHz     (90.7 %), step = 14.36 MHz    (103 m%)
    stb: freq = 645.7 MHz   (90.8 %), step = 14.7 MHz     (103 m%)
    stb: freq = 660.7 MHz   (90.9 %), step = 15.04 MHz    (103 m%)
    stb: freq = 676.1 MHz     (91 %), step = 15.39 MHz    (103 m%)
    stb: freq = 691.8 MHz   (91.1 %), step = 15.75 MHz    (103 m%)
    stb: freq = 707.9 MHz   (91.2 %), step = 16.11 MHz    (103 m%)
    stb: freq = 724.4 MHz   (91.3 %), step = 16.49 MHz    (103 m%)
    stb: freq = 741.3 MHz   (91.4 %), step = 16.87 MHz    (103 m%)
    stb: freq = 758.6 MHz   (91.5 %), step = 17.27 MHz    (103 m%)
    stb: freq = 776.2 MHz   (91.6 %), step = 17.67 MHz    (103 m%)
    stb: freq = 794.3 MHz   (91.8 %), step = 18.08 MHz    (103 m%)
    stb: freq = 812.8 MHz   (91.9 %), step = 18.5 MHz     (103 m%)
    stb: freq = 831.8 MHz     (92 %), step = 18.93 MHz    (103 m%)
    stb: freq = 851.1 MHz   (92.1 %), step = 19.37 MHz    (103 m%)
    stb: freq = 871 MHz     (92.2 %), step = 19.83 MHz    (103 m%)
    stb: freq = 891.3 MHz   (92.3 %), step = 20.29 MHz    (103 m%)
    stb: freq = 912 MHz     (92.4 %), step = 20.76 MHz    (103 m%)
    stb: freq = 933.3 MHz   (92.5 %), step = 21.24 MHz    (103 m%)
    stb: freq = 955 MHz     (92.6 %), step = 21.74 MHz    (103 m%)
    stb: freq = 977.2 MHz   (92.7 %), step = 22.24 MHz    (103 m%)
    stb: freq = 1 GHz       (92.8 %), step = 22.76 MHz    (103 m%)
    stb: freq = 1.023 GHz   (92.9 %), step = 23.29 MHz    (103 m%)
    stb: freq = 1.047 GHz     (93 %), step = 23.84 MHz    (103 m%)
    stb: freq = 1.072 GHz   (93.1 %), step = 24.39 MHz    (103 m%)
    stb: freq = 1.096 GHz   (93.2 %), step = 24.96 MHz    (103 m%)
    stb: freq = 1.122 GHz   (93.3 %), step = 25.54 MHz    (103 m%)
    stb: freq = 1.148 GHz   (93.4 %), step = 26.14 MHz    (103 m%)
    stb: freq = 1.175 GHz   (93.5 %), step = 26.74 MHz    (103 m%)
    stb: freq = 1.202 GHz   (93.6 %), step = 27.37 MHz    (103 m%)
    stb: freq = 1.23 GHz    (93.7 %), step = 28 MHz       (103 m%)
    stb: freq = 1.259 GHz   (93.8 %), step = 28.66 MHz    (103 m%)
    stb: freq = 1.288 GHz   (93.9 %), step = 29.32 MHz    (103 m%)
    stb: freq = 1.318 GHz     (94 %), step = 30.01 MHz    (103 m%)
    stb: freq = 1.349 GHz   (94.1 %), step = 30.71 MHz    (103 m%)
    stb: freq = 1.38 GHz    (94.2 %), step = 31.42 MHz    (103 m%)
    stb: freq = 1.413 GHz   (94.3 %), step = 32.15 MHz    (103 m%)
    stb: freq = 1.445 GHz   (94.4 %), step = 32.9 MHz     (103 m%)
    stb: freq = 1.479 GHz   (94.5 %), step = 33.67 MHz    (103 m%)
    stb: freq = 1.514 GHz   (94.6 %), step = 34.45 MHz    (103 m%)
    stb: freq = 1.549 GHz   (94.7 %), step = 35.26 MHz    (103 m%)
    stb: freq = 1.585 GHz   (94.8 %), step = 36.08 MHz    (103 m%)
    stb: freq = 1.622 GHz   (94.9 %), step = 36.92 MHz    (103 m%)
    stb: freq = 1.66 GHz    (95.1 %), step = 37.78 MHz    (103 m%)
    stb: freq = 1.698 GHz   (95.2 %), step = 38.66 MHz    (103 m%)
    stb: freq = 1.738 GHz   (95.3 %), step = 39.56 MHz    (103 m%)
    stb: freq = 1.778 GHz   (95.4 %), step = 40.48 MHz    (103 m%)
    stb: freq = 1.82 GHz    (95.5 %), step = 41.42 MHz    (103 m%)
    stb: freq = 1.862 GHz   (95.6 %), step = 42.39 MHz    (103 m%)
    stb: freq = 1.905 GHz   (95.7 %), step = 43.37 MHz    (103 m%)
    stb: freq = 1.95 GHz    (95.8 %), step = 44.38 MHz    (103 m%)
    stb: freq = 1.995 GHz   (95.9 %), step = 45.42 MHz    (103 m%)
    stb: freq = 2.042 GHz     (96 %), step = 46.48 MHz    (103 m%)
    stb: freq = 2.089 GHz   (96.1 %), step = 47.56 MHz    (103 m%)
    stb: freq = 2.138 GHz   (96.2 %), step = 48.67 MHz    (103 m%)
    stb: freq = 2.188 GHz   (96.3 %), step = 49.8 MHz     (103 m%)
    stb: freq = 2.239 GHz   (96.4 %), step = 50.96 MHz    (103 m%)
    stb: freq = 2.291 GHz   (96.5 %), step = 52.15 MHz    (103 m%)
    stb: freq = 2.344 GHz   (96.6 %), step = 53.36 MHz    (103 m%)
    stb: freq = 2.399 GHz   (96.7 %), step = 54.6 MHz     (103 m%)
    stb: freq = 2.455 GHz   (96.8 %), step = 55.88 MHz    (103 m%)
    stb: freq = 2.512 GHz   (96.9 %), step = 57.18 MHz    (103 m%)
    stb: freq = 2.57 GHz      (97 %), step = 58.51 MHz    (103 m%)
    stb: freq = 2.63 GHz    (97.1 %), step = 59.87 MHz    (103 m%)
    stb: freq = 2.692 GHz   (97.2 %), step = 61.27 MHz    (103 m%)
    stb: freq = 2.754 GHz   (97.3 %), step = 62.69 MHz    (103 m%)
    stb: freq = 2.818 GHz   (97.4 %), step = 64.15 MHz    (103 m%)
    stb: freq = 2.884 GHz   (97.5 %), step = 65.65 MHz    (103 m%)
    stb: freq = 2.951 GHz   (97.6 %), step = 67.18 MHz    (103 m%)
    stb: freq = 3.02 GHz    (97.7 %), step = 68.74 MHz    (103 m%)
    stb: freq = 3.09 GHz    (97.8 %), step = 70.34 MHz    (103 m%)
    stb: freq = 3.162 GHz   (97.9 %), step = 71.98 MHz    (103 m%)
    stb: freq = 3.236 GHz     (98 %), step = 73.66 MHz    (103 m%)
    stb: freq = 3.311 GHz   (98.1 %), step = 75.37 MHz    (103 m%)
    stb: freq = 3.388 GHz   (98.2 %), step = 77.13 MHz    (103 m%)
    stb: freq = 3.467 GHz   (98.4 %), step = 78.93 MHz    (103 m%)
    stb: freq = 3.548 GHz   (98.5 %), step = 80.77 MHz    (103 m%)
    stb: freq = 3.631 GHz   (98.6 %), step = 82.65 MHz    (103 m%)
    stb: freq = 3.715 GHz   (98.7 %), step = 84.57 MHz    (103 m%)
    stb: freq = 3.802 GHz   (98.8 %), step = 86.54 MHz    (103 m%)
    stb: freq = 3.89 GHz    (98.9 %), step = 88.56 MHz    (103 m%)
    stb: freq = 3.981 GHz     (99 %), step = 90.62 MHz    (103 m%)
    stb: freq = 4.074 GHz   (99.1 %), step = 92.73 MHz    (103 m%)
    stb: freq = 4.169 GHz   (99.2 %), step = 94.89 MHz    (103 m%)
    stb: freq = 4.266 GHz   (99.3 %), step = 97.1 MHz     (103 m%)
    stb: freq = 4.365 GHz   (99.4 %), step = 99.36 MHz    (103 m%)
    stb: freq = 4.467 GHz   (99.5 %), step = 101.7 MHz    (103 m%)
    stb: freq = 4.571 GHz   (99.6 %), step = 104 MHz      (103 m%)
    stb: freq = 4.677 GHz   (99.7 %), step = 106.5 MHz    (103 m%)
    stb: freq = 4.786 GHz   (99.8 %), step = 108.9 MHz    (103 m%)
    stb: freq = 4.898 GHz   (99.9 %), step = 111.5 MHz    (103 m%)
    stb: freq = 5 GHz        (100 %), step = 102.2 MHz    (103 m%)

Notice from spectre at freq = 5 GHz during STB analysis `stb'.
    No gain margin. Phase does not reach 0 Deg.

Phase margin = 75.417 Deg at frequency = 110.391 MHz.
Accumulated DC solution time =            0 s.
Intrinsic stb analysis time =              20 ms.
Total time required for stb analysis `stb': CPU = 16.833 ms, elapsed = 26.803 ms.
Time accumulated: CPU = 229.103 ms, elapsed = 360.192 ms.
Peak resident memory used = 124 Mbytes.

modelParameter: writing model parameter values to rawfile.

Opening the PSF file ../psf/modelParameter.info ...
element: writing instance parameter values to rawfile.

Opening the PSF file ../psf/element.info ...
outputParameter: writing output parameter values to rawfile.

Opening the PSF file ../psf/outputParameter.info ...
designParamVals: writing netlist parameters to rawfile.

Opening the PSFASCII file ../psf/designParamVals.info ...
primitives: writing primitives to rawfile.

Opening the PSFASCII file ../psf/primitives.info.primitives ...
subckts: writing subcircuits to rawfile.

Opening the PSFASCII file ../psf/subckts.info.subckts ...
